2024_89_CemigReconfigurationCases/1_AlimsCemig/ACSU106/ACSU106SegmentosMT.dss
new line.TR10501632 bus1=BMT162580333.2,bus2=BMT162580335.2,Phases=1,Linecode=CAB103_3_1,Length=0.013934000,Units=km
new line.TR10505517 bus1=BMT3710990B.1.2.3,bus2=BMT6765894B.1.2.3,Phases=3,Linecode=CABA08_3_3,Length=0.043433000,Units=km
new line.TR10505524 bus1=BMT6765894B.1.2.3,bus2=BMT3711018B.1.2.3,Phases=3,Linecode=CABA08_3_3,Length=0.042442000,Units=km
new line.TR10505552 bus1=BMT3711018B.1.2.3,bus2=BMT6765908B.1.2.3,Phases=3,Linecode=CABA08_3_3,Length=0.056589000,Units=km
new line.TR10505559 bus1=BMT6765908B.1.2.3,bus2=BMT3711039B.1.2.3,Phases=3,Linecode=CABA08_3_3,Length=0.056457000,Units=km
new line.TR10505622 bus1=BMT3711039B.1.2.3,bus2=BMT6766013B.1.2.3,Phases=3,Linecode=CABA08_3_3,Length=0.062537000,Units=km
new line.TR10505629 bus1=BMT6766013B.1.2.3,bus2=BMT3711046B.1.2.3,Phases=3,Linecode=CABA08_3_3,Length=0.060553000,Units=km
new line.TR10505636 bus1=BMT3711046B.1.2.3,bus2=BMT6766020B.1.2.3,Phases=3,Linecode=CABA08_3_3,Length=0.047399000,Units=km
new line.TR10505643 bus1=BMT6766020B.1.2.3,bus2=BMT3711053B.1.2.3,Phases=3,Linecode=CABA08_3_3,Length=0.048526000,Units=km
new line.TR10505664 bus1=BMT3711053B.1.2.3,bus2=BMT6766041B.1.2.3,Phases=3,Linecode=CABA08_3_3,Length=0.062537000,Units=km
new line.TR10505671 bus1=BMT6766041B.1.2.3,bus2=BMT3711060B.1.2.3,Phases=3,Linecode=CABA08_3_3,Length=0.062537000,Units=km
new line.TR10505825 bus1=BMT3711179B.1.2.3,bus2=BMT6766300B.1.2.3,Phases=3,Linecode=CABA08_3_3,Length=0.050506000,Units=km
new line.TR10505832 bus1=BMT6766300B.1.2.3,bus2=BMT3711186B.1.2.3,Phases=3,Linecode=CABA08_3_3,Length=0.050506000,Units=km
new line.TR10505888 bus1=BMT3711186B.1.2.3,bus2=BMT6766335B.1.2.3,Phases=3,Linecode=CABA08_3_3,Length=0.030475000,Units=km
new line.TR10505895 bus1=BMT6766335B.1.2.3,bus2=BMT3711193B.1.2.3,Phases=3,Linecode=CABA08_3_3,Length=0.070864000,Units=km
new line.TR10506035 bus1=BMT6766468B.1.2.3,bus2=BMT3711200B.1.2.3,Phases=3,Linecode=CABA08_3_3,Length=0.044570000,Units=km
new line.TR10506133 bus1=BMT3711200B.1.2.3,bus2=BMT6766524B.1.2.3,Phases=3,Linecode=CABA08_3_3,Length=0.045294000,Units=km
new line.TR10506140 bus1=BMT6766524B.1.2.3,bus2=BMT3711207B.1.2.3,Phases=3,Linecode=CABA08_3_3,Length=0.044424000,Units=km
new line.TR10506238 bus1=BMT3711214B.1.2.3,bus2=BMT6766636B.1.2.3,Phases=3,Linecode=CABA08_3_3,Length=0.052488000,Units=km
new line.TR10506245 bus1=BMT6766636B.1.2.3,bus2=BMT165091407.1.2.3,Phases=3,Linecode=CABA08_3_3,Length=0.052488000,Units=km
new line.TR10506357 bus1=BMT165091407.1.2.3,bus2=BMT6766699B.1.2.3,Phases=3,Linecode=CABA08_3_3,Length=0.047872000,Units=km
new line.TR10506364 bus1=BMT6766699B.1.2.3,bus2=BMT3711221B.1.2.3,Phases=3,Linecode=CABA08_3_3,Length=0.050029000,Units=km
new line.TR10506420 bus1=BMT3711221B.1.2.3,bus2=BMT6766748B.1.2.3,Phases=3,Linecode=CABA08_3_3,Length=0.059250000,Units=km
new line.TR10506427 bus1=BMT6766748B.1.2.3,bus2=BMT3711228B.1.2.3,Phases=3,Linecode=CABA08_3_3,Length=0.061415000,Units=km
new line.TR10506903 bus1=BMT165091409.1.2.3,bus2=BMT6767266B.1.2.3,Phases=3,Linecode=CABA08_3_3,Length=0.073573000,Units=km
new line.TR10506917 bus1=BMT6767266B.1.2.3,bus2=BMT6767287B.1.2.3,Phases=3,Linecode=CABA08_3_3,Length=0.072594000,Units=km
new line.TR10506952 bus1=BMT6767287B.1.2.3,bus2=BMT6767343B.1.2.3,Phases=3,Linecode=CABA08_3_3,Length=0.059250000,Units=km
new line.TR10506959 bus1=BMT6767343B.1.2.3,bus2=BMT165091411.1.2.3,Phases=3,Linecode=CABA08_3_3,Length=0.059461000,Units=km
new line.TR10507267 bus1=BMT165091411.1.2.3,bus2=BMT6767686B.1.2.3,Phases=3,Linecode=CABA08_3_3,Length=0.042969000,Units=km
new line.TR10507274 bus1=BMT6767686B.1.2.3,bus2=BMT3711256B.1.2.3,Phases=3,Linecode=CABA08_3_3,Length=0.042969000,Units=km
new line.TR10507463 bus1=BMT3711256B.1.2.3,bus2=BMT6767959B.1.2.3,Phases=3,Linecode=CABA08_3_3,Length=0.045139000,Units=km
new line.TR10507470 bus1=BMT6767959B.1.2.3,bus2=BMT3711263B.1.2.3,Phases=3,Linecode=CABA08_3_3,Length=0.045139000,Units=km
new line.TR10507883 bus1=BMT3711263B.1.2.3,bus2=BMT6768365B.1.2.3,Phases=3,Linecode=CABA08_3_3,Length=0.044028000,Units=km
new line.TR10507890 bus1=BMT6768365B.1.2.3,bus2=BMT3711277B.1.2.3,Phases=3,Linecode=CABA08_3_3,Length=0.045028000,Units=km
new line.TR10507960 bus1=BMT3711277B.1.2.3,bus2=BMT6768470B.1.2.3,Phases=3,Linecode=CABA08_3_3,Length=0.048028000,Units=km
new line.TR10507967 bus1=BMT6768470B.1.2.3,bus2=BMT3711284B.1.2.3,Phases=3,Linecode=CABA08_3_3,Length=0.048028000,Units=km
new line.TR10508191 bus1=BMT3711284B.1.2.3,bus2=BMT6768666B.1.2.3,Phases=3,Linecode=CABA08_3_3,Length=0.052019000,Units=km
new line.TR10508387 bus1=BMT6768666B.1.2.3,bus2=BMT6768946B.1.2.3,Phases=3,Linecode=CABA08_3_3,Length=0.095056000,Units=km
new line.TR10508394 bus1=BMT6768946B.1.2.3,bus2=BMT3711291B.1.2.3,Phases=3,Linecode=CABA08_3_3,Length=0.094056000,Units=km
new line.TR10508779 bus1=BMT3711291B.1.2.3,bus2=BMT6769219B.1.2.3,Phases=3,Linecode=CABA08_3_3,Length=0.070033000,Units=km
new line.TR10508786 bus1=BMT6769219B.1.2.3,bus2=BMT3711298B.1.2.3,Phases=3,Linecode=CABA08_3_3,Length=0.071054000,Units=km
new line.TR10509213 bus1=BMT3711298B.1.2.3,bus2=BMT6769695B.1.2.3,Phases=3,Linecode=CABA08_3_3,Length=0.045028000,Units=km
new line.TR10509220 bus1=BMT6769695B.1.2.3,bus2=BMT3711305B.1.2.3,Phases=3,Linecode=CABA08_3_3,Length=0.057100000,Units=km
new line.TR10514596 bus1=BMT162580883.1.2.3,bus2=BMT6775610B.1.2.3,Phases=3,Linecode=CABA08_3_3,Length=0.056101000,Units=km
new line.TR10514603 bus1=BMT6775610B.1.2.3,bus2=BMT3711354B.1.2.3,Phases=3,Linecode=CABA08_3_3,Length=0.055057000,Units=km
new line.TR10515191 bus1=BMT162580228.1.2.3,bus2=BMT162580227.1.2.3,Phases=3,Linecode=CAB108_3_3,Length=0.019933000,Units=km
new line.TR10515198 bus1=BMT165090844.1.2.3,bus2=BMT165090843.1.2.3,Phases=3,Linecode=CAB108_3_3,Length=0.037014000,Units=km
new line.TR10515282 bus1=BMT3711354B.1.2.3,bus2=BMT6776331B.1.2.3,Phases=3,Linecode=CABA08_3_3,Length=0.054251000,Units=km
new line.TR10515597 bus1=BMT6776331B.1.2.3,bus2=BMT165091413.1.2.3,Phases=3,Linecode=CABA08_3_3,Length=0.059503000,Units=km
new line.TR10515737 bus1=BMT165091413.1.2.3,bus2=BMT165091414.1.2.3,Phases=3,Linecode=CAB107_3_3,Length=0.020008000,Units=km
new line.TR10516108 bus1=BMT165091413.1.2.3,bus2=BMT6777073B.1.2.3,Phases=3,Linecode=CABA08_3_3,Length=0.099761000,Units=km
new line.TR10516227 bus1=BMT6777073B.1.2.3,bus2=BMT165091415.1.2.3,Phases=3,Linecode=CABA08_3_3,Length=0.107603000,Units=km
new line.TR10516374 bus1=BMT165091415.3,bus2=BMT2645044B.3,Phases=1,Linecode=CAB202_3_1,Length=0.074007000,Units=km
new line.TR10516458 bus1=BMT167329785.1,bus2=BMT167329786.1,Phases=1,Linecode=CAB202_3_1,Length=0.120978000,Units=km
new line.TR10518075 bus1=BMT165091415.1.2.3,bus2=BMT6777346B.1.2.3,Phases=3,Linecode=CABA08_3_3,Length=0.054057000,Units=km
new line.TR10518096 bus1=BMT6777346B.1.2.3,bus2=BMT162580888.1.2.3,Phases=3,Linecode=CABA08_3_3,Length=0.054057000,Units=km
new line.TR10518117 bus1=BMT168227266.1.2.3,bus2=BMT6777388B.1.2.3,Phases=3,Linecode=CABA08_3_3,Length=0.023031000,Units=km
new line.TR10518131 bus1=BMT6777402B.1.2.3,bus2=BMT6777528B.1.2.3,Phases=3,Linecode=CABA08_3_3,Length=0.106114000,Units=km
new line.TR10518138 bus1=BMT6777528B.1.2.3,bus2=BMT168662493.1.2.3,Phases=3,Linecode=CABA08_3_3,Length=0.112081000,Units=km
new line.TR10518145 bus1=BMT168662493.1.2.3,bus2=BMT6777584B.1.2.3,Phases=3,Linecode=CABA08_3_3,Length=0.097118000,Units=km
new line.TR10518152 bus1=BMT6777584B.1.2.3,bus2=BMT6777745B.1.2.3,Phases=3,Linecode=CABA08_3_3,Length=0.080054000,Units=km
new line.TR10518166 bus1=BMT6777745B.1.2.3,bus2=BMT6777794B.1.2.3,Phases=3,Linecode=CABA08_3_3,Length=0.079086000,Units=km
new line.TR10518173 bus1=BMT6777794B.1.2.3,bus2=BMT6777857B.1.2.3,Phases=3,Linecode=CABA08_3_3,Length=0.080086000,Units=km
new line.TR10518180 bus1=BMT6777857B.1.2.3,bus2=BMT6777885B.1.2.3,Phases=3,Linecode=CABA08_3_3,Length=0.080086000,Units=km
new line.TR10518236 bus1=BMT6777885B.1.2.3,bus2=BMT162580892.1.2.3,Phases=3,Linecode=CABA08_3_3,Length=0.079054000,Units=km
new line.TR10518243 bus1=BMT162580892.1.2.3,bus2=BMT6777920B.1.2.3,Phases=3,Linecode=CABA08_3_3,Length=0.079086000,Units=km
new line.TR10518250 bus1=BMT6777920B.1.2.3,bus2=BMT6777962B.1.2.3,Phases=3,Linecode=CABA08_3_3,Length=0.080086000,Units=km
new line.TR10518320 bus1=BMT6777962B.1.2.3,bus2=BMT6778613B.1.2.3,Phases=3,Linecode=CABA08_3_3,Length=0.080054000,Units=km
new line.TR10518327 bus1=BMT6778613B.1.2.3,bus2=BMT6778620B.1.2.3,Phases=3,Linecode=CABA08_3_3,Length=0.080086000,Units=km
new line.TR10518334 bus1=BMT6778620B.1.2.3,bus2=BMT6778837B.1.2.3,Phases=3,Linecode=CABA08_3_3,Length=0.059056000,Units=km
new line.TR10518726 bus1=BMT6779201B.1.2.3,bus2=BMT6779208B.1.2.3,Phases=3,Linecode=CABA08_3_3,Length=0.052029000,Units=km
new line.TR10518733 bus1=BMT6779208B.1.2.3,bus2=BMT6779222B.1.2.3,Phases=3,Linecode=CABA08_3_3,Length=0.052029000,Units=km
new line.TR10518740 bus1=BMT6779222B.1.2.3,bus2=BMT6779229B.1.2.3,Phases=3,Linecode=CABA08_3_3,Length=0.080036000,Units=km
new line.TR10518747 bus1=BMT6779229B.1.2.3,bus2=BMT6779236B.1.2.3,Phases=3,Linecode=CABA08_3_3,Length=0.080029000,Units=km
new line.TR10518803 bus1=BMT6779236B.1.2.3,bus2=BMT6779243B.1.2.3,Phases=3,Linecode=CABA08_3_3,Length=0.080036000,Units=km
new line.TR10518810 bus1=BMT6779243B.1.2.3,bus2=BMT6779250B.1.2.3,Phases=3,Linecode=CABA08_3_3,Length=0.080054000,Units=km
new line.TR10518817 bus1=BMT6779250B.1.2.3,bus2=BMT163690457.1.2.3,Phases=3,Linecode=CABA08_3_3,Length=0.080036000,Units=km
new line.TR10518824 bus1=BMT163690457.1.2.3,bus2=BMT6779292B.1.2.3,Phases=3,Linecode=CABA08_3_3,Length=0.074054000,Units=km
new line.TR10518831 bus1=BMT6779292B.1.2.3,bus2=BMT6779327B.1.2.3,Phases=3,Linecode=CABA08_3_3,Length=0.070033000,Units=km
new line.TR10518887 bus1=BMT6779327B.1.2.3,bus2=BMT6779341B.1.2.3,Phases=3,Linecode=CABA08_3_3,Length=0.072033000,Units=km
new line.TR10518894 bus1=BMT6779341B.1.2.3,bus2=BMT6779348B.1.2.3,Phases=3,Linecode=CABA08_3_3,Length=0.072033000,Units=km
new line.TR10518901 bus1=BMT6779348B.1.2.3,bus2=BMT6779355B.1.2.3,Phases=3,Linecode=CABA08_3_3,Length=0.060022000,Units=km
new line.TR10518908 bus1=BMT6779355B.1.2.3,bus2=BMT6779362B.1.2.3,Phases=3,Linecode=CABA08_3_3,Length=0.060022000,Units=km
new line.TR10518915 bus1=BMT6779362B.1.2.3,bus2=BMT6779411B.1.2.3,Phases=3,Linecode=CABA08_3_3,Length=0.063023000,Units=km
new line.TR10519216 bus1=BMT6779411B.1.2.3,bus2=BMT6779530B.1.2.3,Phases=3,Linecode=CABA08_3_3,Length=0.087009000,Units=km
new line.TR10519223 bus1=BMT6779530B.1.2.3,bus2=BMT6779558B.1.2.3,Phases=3,Linecode=CABA08_3_3,Length=0.080111000,Units=km
new line.TR10519230 bus1=BMT6779558B.1.2.3,bus2=BMT6779572B.1.2.3,Phases=3,Linecode=CABA08_3_3,Length=0.080111000,Units=km
new line.TR10519237 bus1=BMT6779572B.1.2.3,bus2=BMT6779642B.1.2.3,Phases=3,Linecode=CABA08_3_3,Length=0.078189000,Units=km
new line.TR10519244 bus1=BMT6779642B.1.2.3,bus2=BMT168662495.1.2.3,Phases=3,Linecode=CABA08_3_3,Length=0.090835000,Units=km
new line.TR10519251 bus1=BMT168662496.1.2.3,bus2=BMT6779740B.1.2.3,Phases=3,Linecode=CABA08_3_3,Length=0.069947000,Units=km
new line.TR10519258 bus1=BMT6779740B.1.2.3,bus2=BMT168662497.1.2.3,Phases=3,Linecode=CABA08_3_3,Length=0.068706000,Units=km
new line.TR10519349 bus1=BMT168662497.1.2.3,bus2=BMT6779901B.1.2.3,Phases=3,Linecode=CABA08_3_3,Length=0.083271000,Units=km
new line.TR10519356 bus1=BMT6779901B.1.2.3,bus2=BMT162580899.1.2.3,Phases=3,Linecode=CABA08_3_3,Length=0.040537000,Units=km
new line.TR10519363 bus1=BMT163096874.1.2.3,bus2=BMT6779915B.1.2.3,Phases=3,Linecode=CABA08_3_3,Length=0.040537000,Units=km
new line.TR10519370 bus1=BMT6779915B.1.2.3,bus2=BMT6779922B.1.2.3,Phases=3,Linecode=CABA08_3_3,Length=0.079841000,Units=km
new line.TR10519377 bus1=BMT6779922B.1.2.3,bus2=BMT6779943B.1.2.3,Phases=3,Linecode=CABA08_3_3,Length=0.083965000,Units=km
new line.TR10519384 bus1=BMT6779943B.1.2.3,bus2=BMT6779957B.1.2.3,Phases=3,Linecode=CABA08_3_3,Length=0.059930000,Units=km
new line.TR10519391 bus1=BMT6779957B.1.2.3,bus2=BMT6779964B.1.2.3,Phases=3,Linecode=CABA08_3_3,Length=0.059930000,Units=km
new line.TR10519398 bus1=BMT6779964B.1.2.3,bus2=BMT6779985B.1.2.3,Phases=3,Linecode=CABA08_3_3,Length=0.060189000,Units=km
new line.TR10519405 bus1=BMT6779985B.1.2.3,bus2=BMT6779992B.1.2.3,Phases=3,Linecode=CABA08_3_3,Length=0.059503000,Units=km
new line.TR10519412 bus1=BMT6779992B.1.2.3,bus2=BMT6780006B.1.2.3,Phases=3,Linecode=CABA08_3_3,Length=0.059503000,Units=km
new line.TR10519419 bus1=BMT6780006B.1.2.3,bus2=BMT6780013B.1.2.3,Phases=3,Linecode=CABA08_3_3,Length=0.065827000,Units=km
new line.TR10519426 bus1=BMT6780013B.1.2.3,bus2=BMT6780027B.1.2.3,Phases=3,Linecode=CABA08_3_3,Length=0.057995000,Units=km
new line.TR10519433 bus1=BMT6780027B.1.2.3,bus2=BMT6780055B.1.2.3,Phases=3,Linecode=CABA08_3_3,Length=0.166012000,Units=km
new line.TR10519594 bus1=BMT6780055B.1.2.3,bus2=BMT6780125B.1.2.3,Phases=3,Linecode=CABA08_3_3,Length=0.085243000,Units=km
new line.TR10520217 bus1=BMT6780300B.1.2.3,bus2=BMT6780377B.1.2.3,Phases=3,Linecode=CABA08_3_3,Length=0.055563000,Units=km
new line.TR10520224 bus1=BMT6780377B.1.2.3,bus2=BMT6780384B.1.2.3,Phases=3,Linecode=CABA08_3_3,Length=0.055175000,Units=km
new line.TR10520231 bus1=BMT6780384B.1.2.3,bus2=BMT162580263.1.2.3,Phases=3,Linecode=CABA08_3_3,Length=0.053330000,Units=km
new line.TR10520238 bus1=BMT162580263.1.2.3,bus2=BMT6780811B.1.2.3,Phases=3,Linecode=CABA08_3_3,Length=0.048865000,Units=km
new line.TR10520245 bus1=BMT6780811B.1.2.3,bus2=BMT6780818B.1.2.3,Phases=3,Linecode=CABA08_3_3,Length=0.048865000,Units=km
new line.TR10520252 bus1=BMT6780818B.1.2.3,bus2=BMT162580904.1.2.3,Phases=3,Linecode=CABA08_3_3,Length=0.042560000,Units=km
new line.TR10520280 bus1=BMT162580262.1.2.3,bus2=BMT162580259.1.2.3,Phases=3,Linecode=CABA08_3_3,Length=0.013607000,Units=km
new line.TR10520350 bus1=BMT162580905.1.2.3,bus2=BMT162580906.1.2.3,Phases=3,Linecode=CAB904_3_3,Length=0.008066000,Units=km
new line.TR10521624 bus1=BMT168662493.3,bus2=BMT168662494.3,Phases=1,Linecode=CAB202_3_1,Length=0.103135000,Units=km
new line.TR10522296 bus1=BMT168662497.3,bus2=BMT168662498.3,Phases=1,Linecode=CAB202_3_1,Length=0.050625000,Units=km
new line.TR10911447 bus1=BMT171148770.2,bus2=BMT171148771.2,Phases=1,Linecode=CAB203_3_1,Length=0.038028000,Units=km
new line.TR10911755 bus1=BMT163939851.3,bus2=BMT163939852.3,Phases=1,Linecode=CAB103_3_1,Length=0.063095000,Units=km
new line.TR10911762 bus1=BMT163939852.3,bus2=BMT163939853.3,Phases=1,Linecode=CAB202_3_1,Length=0.106257000,Units=km
new line.TR10912798 bus1=BMT172300479.3,bus2=BMT172300480.3,Phases=1,Linecode=CAB103_3_1,Length=0.040475000,Units=km
new line.TR10912805 bus1=BMT172300480.3,bus2=BMT7155780B.3,Phases=1,Linecode=CAB202_3_1,Length=0.097529000,Units=km
new line.TR10912819 bus1=BMT7155780B.3,bus2=BMT172300494.3,Phases=1,Linecode=CAB202_3_1,Length=0.091740000,Units=km
new line.TR10937942 bus1=BMT1293092B.3,bus2=BMT1293078B.3,Phases=1,Linecode=CABA06_3_1,Length=0.041609000,Units=km
new line.TR10937949 bus1=BMT1293078B.3,bus2=BMT1293064B.3,Phases=1,Linecode=CABA06_3_1,Length=0.049838000,Units=km
new line.TR10937956 bus1=BMT1293064B.3,bus2=BMT3812812B.3,Phases=1,Linecode=CABA06_3_1,Length=0.044738000,Units=km
new line.TR10937963 bus1=BMT3812812B.3,bus2=BMT161625277.3,Phases=1,Linecode=CABA06_3_1,Length=0.044738000,Units=km
new line.TR11188164 bus1=BMT165233199.1.2.3,bus2=BMT98294618.1.2.3,Phases=3,Linecode=CAB102_3_3,Length=0.047452000,Units=km
new line.TR11188199 bus1=BMT98294618.1.2.3,bus2=BMT7409446B.1.2.3,Phases=3,Linecode=CAB202_3_3,Length=0.052364000,Units=km
new line.TR11188206 bus1=BMT7409446B.1.2.3,bus2=BMT98294625.1.2.3,Phases=3,Linecode=CAB202_3_3,Length=0.055967000,Units=km
new line.TR11189949 bus1=BMT158314109.1.2.3,bus2=BMT7407689B.1.2.3,Phases=3,Linecode=CABA06_3_3,Length=0.030028000,Units=km
new line.TR11189963 bus1=BMT7407689B.1.2.3,bus2=BMT7407703B.1.2.3,Phases=3,Linecode=CABA06_3_3,Length=0.025010000,Units=km
new line.TR11189991 bus1=BMT7407703B.1.2.3,bus2=BMT7407717B.1.2.3,Phases=3,Linecode=CABA06_3_3,Length=0.031397000,Units=km
new line.TR11190005 bus1=BMT7407717B.1.2.3,bus2=BMT7407724B.1.2.3,Phases=3,Linecode=CABA06_3_3,Length=0.025817000,Units=km
new line.TR11190075 bus1=BMT7407724B.1.2.3,bus2=BMT158314110.1.2.3,Phases=3,Linecode=CABA06_3_3,Length=0.030540000,Units=km
new line.TR11190082 bus1=BMT158314110.1.2.3,bus2=BMT7407745B.1.2.3,Phases=3,Linecode=CABA06_3_3,Length=0.033628000,Units=km
new line.TR11190089 bus1=BMT7407745B.1.2.3,bus2=BMT7407864B.1.2.3,Phases=3,Linecode=CABA06_3_3,Length=0.037176000,Units=km
new line.TR11190124 bus1=BMT7407864B.1.2.3,bus2=BMT7411574B.1.2.3,Phases=3,Linecode=CABA06_3_3,Length=0.030244000,Units=km
new line.TR11190159 bus1=BMT7411574B.1.2.3,bus2=BMT7407962B.1.2.3,Phases=3,Linecode=CABA06_3_3,Length=0.023863000,Units=km
new line.TR11190208 bus1=BMT7407962B.1.2.3,bus2=BMT7408011B.1.2.3,Phases=3,Linecode=CABA06_3_3,Length=0.036069000,Units=km
new line.TR11190229 bus1=BMT7408011B.1.2.3,bus2=BMT158314111.1.2.3,Phases=3,Linecode=CABA06_3_3,Length=0.039461000,Units=km
new line.TR11190740 bus1=BMT150202291.1.2.3,bus2=BMT7409691B.1.2.3,Phases=3,Linecode=CABA06_3_3,Length=0.044615000,Units=km
new line.TR11190747 bus1=BMT7409691B.1.2.3,bus2=BMT150202292.1.2.3,Phases=3,Linecode=CABA06_3_3,Length=0.036783000,Units=km
new line.TR11190754 bus1=BMT150202292.1,bus2=BMT150202293.1,Phases=1,Linecode=CABA06_3_1,Length=0.038925000,Units=km
new line.TR11191041 bus1=BMT150202292.1.2.3,bus2=BMT7409740B.1.2.3,Phases=3,Linecode=CABA06_3_3,Length=0.035482000,Units=km
new line.TR11191048 bus1=BMT7409740B.1.2.3,bus2=BMT7409775B.1.2.3,Phases=3,Linecode=CABA06_3_3,Length=0.032539000,Units=km
new line.TR11191055 bus1=BMT7409775B.1.2.3,bus2=BMT7409782B.1.2.3,Phases=3,Linecode=CABA06_3_3,Length=0.040326000,Units=km
new line.TR11191062 bus1=BMT7409782B.1.2.3,bus2=BMT150202294.1.2.3,Phases=3,Linecode=CABA06_3_3,Length=0.021221000,Units=km
new line.TR11191069 bus1=BMT150202294.1.2.3,bus2=BMT7409824B.1.2.3,Phases=3,Linecode=CABA06_3_3,Length=0.037497000,Units=km
new line.TR11191076 bus1=BMT7409824B.1.2.3,bus2=BMT7409838B.1.2.3,Phases=3,Linecode=CABA06_3_3,Length=0.026259000,Units=km
new line.TR11191083 bus1=BMT7409838B.1.2.3,bus2=BMT7409852B.1.2.3,Phases=3,Linecode=CABA06_3_3,Length=0.034669000,Units=km
new line.TR11191090 bus1=BMT7409852B.1.2.3,bus2=BMT150202295.1.2.3,Phases=3,Linecode=CABA06_3_3,Length=0.025466000,Units=km
new line.TR11191097 bus1=BMT150202295.3,bus2=BMT7409873B.3,Phases=1,Linecode=CABA06_3_1,Length=0.031124000,Units=km
new line.TR11191111 bus1=BMT7409873B.3,bus2=BMT7409880B.3,Phases=1,Linecode=CABA06_3_1,Length=0.032570000,Units=km
new line.TR11191118 bus1=BMT7409880B.3,bus2=BMT150202296.3,Phases=1,Linecode=CABA06_3_1,Length=0.031902000,Units=km
new line.TR11191153 bus1=BMT150202295.1,bus2=BMT7410139B.1,Phases=1,Linecode=CABA06_3_1,Length=0.033254000,Units=km
new line.TR11191328 bus1=BMT7410139B.1,bus2=BMT7410146B.1,Phases=1,Linecode=CABA06_3_1,Length=0.032570000,Units=km
new line.TR11191335 bus1=BMT7410146B.1,bus2=BMT7410160B.1,Phases=1,Linecode=CABA06_3_1,Length=0.033954000,Units=km
new line.TR11191342 bus1=BMT7410160B.1,bus2=BMT7410167B.1,Phases=1,Linecode=CABA06_3_1,Length=0.031124000,Units=km
new line.TR11191349 bus1=BMT7410167B.1,bus2=BMT150202297.1,Phases=1,Linecode=CABA06_3_1,Length=0.034669000,Units=km
new line.TR11191384 bus1=BMT150202294.3,bus2=BMT98300400.3,Phases=1,Linecode=CABA06_3_1,Length=0.031840000,Units=km
new line.TR11191671 bus1=BMT150199475.3,bus2=BMT150199476.3,Phases=1,Linecode=CABA06_3_1,Length=0.036083000,Units=km
new line.TR11191678 bus1=BMT150199476.3,bus2=BMT7411091B.3,Phases=1,Linecode=CABA06_3_1,Length=0.030491000,Units=km
new line.TR11191685 bus1=BMT7411091B.3,bus2=BMT7411112B.3,Phases=1,Linecode=CABA06_3_1,Length=0.032570000,Units=km
new line.TR11191692 bus1=BMT7411112B.3,bus2=BMT7411126B.3,Phases=1,Linecode=CABA06_3_1,Length=0.041789000,Units=km
new line.TR11191699 bus1=BMT7411126B.3,bus2=BMT7411147B.3,Phases=1,Linecode=CABA06_3_1,Length=0.040326000,Units=km
new line.TR11191706 bus1=BMT7411147B.3,bus2=BMT7411175B.3,Phases=1,Linecode=CABA06_3_1,Length=0.038224000,Units=km
new line.TR10255218 bus1=BMT6449424B.1,bus2=BMT6449445B.1,Phases=1,Linecode=CAB202_3_1,Length=0.133184000,Units=km
new line.TR10255253 bus1=BMT6449445B.1,bus2=BMT6449494B.1,Phases=1,Linecode=CAB202_3_1,Length=0.137328000,Units=km
new line.TR10255281 bus1=BMT6449466B.1,bus2=BMT161640332.1,Phases=1,Linecode=CAB202_3_1,Length=0.110113000,Units=km
new line.TR10255302 bus1=BMT6449494B.1,bus2=BMT6449466B.1,Phases=1,Linecode=CAB202_3_1,Length=0.113113000,Units=km
new line.TR10575601 bus1=BMT171579461.2,bus2=BMT6836608B.2,Phases=1,Linecode=CAB202_3_1,Length=0.102298000,Units=km
new line.TR10575608 bus1=BMT6836608B.2,bus2=BMT171579463.2,Phases=1,Linecode=CAB202_3_1,Length=0.074177000,Units=km
new line.TR10575902 bus1=BMT158391423.2,bus2=BMT158391425.2,Phases=1,Linecode=CAB202_3_1,Length=0.052451000,Units=km
new line.TR10576175 bus1=BMT168456026.1,bus2=BMT168456027.1,Phases=1,Linecode=CAB202_3_1,Length=0.109329000,Units=km
new line.TR10576378 bus1=BMT152574147.2,bus2=BMT6837315B.2,Phases=1,Linecode=CAB202_3_1,Length=0.291062000,Units=km
new line.TR10576385 bus1=BMT6837315B.2,bus2=BMT152574149.2,Phases=1,Linecode=CAB202_3_1,Length=0.113401000,Units=km
new line.TR10585793 bus1=BMT98288192.1.2.3,bus2=BMT3708568B.1.2.3,Phases=3,Linecode=CAB204_3_3,Length=0.011666000,Units=km
new line.TR10585814 bus1=BMT98288171.1.2.3,bus2=BMT98288178.1.2.3,Phases=3,Linecode=CAB204_3_3,Length=0.021103000,Units=km
new line.TR10585821 bus1=BMT98288178.1.2.3,bus2=BMT98288185.1.2.3,Phases=3,Linecode=CAB204_3_3,Length=0.018364000,Units=km
new line.TR10591358 bus1=BMT168404912.1,bus2=BMT2614475B.1,Phases=1,Linecode=CAB103_3_1,Length=0.015562000,Units=km
new line.TR10591365 bus1=BMT2614475B.1,bus2=BMT2614482B.1,Phases=1,Linecode=CAB103_3_1,Length=0.038433000,Units=km
new line.TR10591372 bus1=BMT2614482B.1,bus2=BMT6852526B.1,Phases=1,Linecode=CAB103_3_1,Length=0.049838000,Units=km
new line.TR10591379 bus1=BMT6852526B.1,bus2=BMT168404915.1,Phases=1,Linecode=CAB103_3_1,Length=0.047694000,Units=km
new line.TR10591876 bus1=BMT152573975.2,bus2=BMT6853534B.2,Phases=1,Linecode=CAB202_3_1,Length=0.050019000,Units=km
new line.TR10591883 bus1=BMT6853534B.2,bus2=BMT6853527B.2,Phases=1,Linecode=CAB202_3_1,Length=0.331274000,Units=km
new line.TR10591890 bus1=BMT6853527B.2,bus2=BMT152573977.2,Phases=1,Linecode=CAB202_3_1,Length=0.059022000,Units=km
new line.TR10593311 bus1=BMT6855795B.3,bus2=BMT6855802B.3,Phases=1,Linecode=CAB202_3_1,Length=0.116855000,Units=km
new line.TR10593318 bus1=BMT6855802B.3,bus2=BMT6855809B.3,Phases=1,Linecode=CAB202_3_1,Length=0.133015000,Units=km
new line.TR10593325 bus1=BMT6855809B.3,bus2=BMT172450908.3,Phases=1,Linecode=CAB202_3_1,Length=0.092798000,Units=km
new line.TR10593521 bus1=BMT172450907.3,bus2=BMT6855795B.3,Phases=1,Linecode=CAB202_3_1,Length=0.045503000,Units=km
new line.TR10593528 bus1=BMT2388130B.3,bus2=BMT6855928B.3,Phases=1,Linecode=CAB202_3_1,Length=0.451692000,Units=km
new line.TR10593535 bus1=BMT6855928B.3,bus2=BMT172450907.3,Phases=1,Linecode=CAB202_3_1,Length=0.140668000,Units=km
new line.TR10601613 bus1=BMT171018938.1,bus2=BMT171018939.1,Phases=1,Linecode=CAB103_3_1,Length=0.048865000,Units=km
new line.TR10601627 bus1=BMT171018939.1,bus2=BMT6865007B.1,Phases=1,Linecode=CAB202_3_1,Length=0.064055000,Units=km
new line.TR10601634 bus1=BMT6865007B.1,bus2=BMT6865014B.1,Phases=1,Linecode=CAB202_3_1,Length=0.097775000,Units=km
new line.TR10601662 bus1=BMT6865014B.1,bus2=BMT6865021B.1,Phases=1,Linecode=CAB202_3_1,Length=0.117060000,Units=km
new line.TR10603923 bus1=BMT3710654B.1.2.3,bus2=BMT162580852.1.2.3,Phases=3,Linecode=CABA08_3_3,Length=0.061080000,Units=km
new line.TR10603930 bus1=BMT3710759B.1.2.3,bus2=BMT162580859.1.2.3,Phases=3,Linecode=CABA08_3_3,Length=0.028646000,Units=km
new line.TR10603937 bus1=BMT162580860.1.2.3,bus2=BMT3710766B.1.2.3,Phases=3,Linecode=CABA08_3_3,Length=0.030882000,Units=km
new line.TR10952299 bus1=BMT152574121.2,bus2=BMT152574124.2,Phases=1,Linecode=CAB103_3_1,Length=0.021032000,Units=km
new line.TR10952348 bus1=BMT166978342.3,bus2=BMT166978344.3,Phases=1,Linecode=CAB202_3_1,Length=0.049222000,Units=km
...
