2024_89_CemigReconfigurationCases/1_AlimsCemig/ACSU106/ACSU106ChavesMT.dss
new line.CTR13280 bus1=BMT98289305.1,bus2=BMT98289333.1,Phases=1,LineCode=tieSwitch1,Length=0.001,Units=km,switch=T !numEQ 160760
new line.CTR132910 bus1=BMT162580869.1.2.3,bus2=BMT162579957.1.2.3,Phases=3,LineCode=tieSwitch,Length=0.001,Units=km,switch=T !numEQ 161656
open line.CTR132910 term=1
new line.CTR142794 bus1=BMT98294737.3,bus2=BMT164807869.3,Phases=1,LineCode=tieSwitch1,Length=0.001,Units=km,switch=T !numEQ 134568
new line.CTR142892 bus1=BMT162580846.1.2.3,bus2=BMT162580847.1.2.3,Phases=3,LineCode=tieSwitch,Length=0.001,Units=km,switch=T !numEQ 161654
new line.CTR143312 bus1=BMT98292133.1.2.3,bus2=BMT170738178.1.2.3,Phases=3,LineCode=tieSwitch,Length=0.001,Units=km,switch=T !numEQ 161273
new line.CTR152006 bus1=BMT98289767.1,bus2=BMT98289963.1,Phases=1,LineCode=tieSwitch1,Length=0.001,Units=km,switch=T !numEQ 105534
new line.CTR164480 bus1=BMT162580874.1.2.3,bus2=BMT165091406.1.2.3,Phases=3,LineCode=tieSwitch,Length=0.001,Units=km,switch=T !numEQ 161417
new line.CTR164494 bus1=BMT162579969.1,bus2=BMT165092006.1,Phases=1,LineCode=tieSwitch1,Length=0.001,Units=km,switch=T !numEQ 130980
new line.CTR164606 bus1=BMT98289746.2,bus2=BMT167571107.2,Phases=1,LineCode=tieSwitch1,Length=0.001,Units=km,switch=T !numEQ 161271
new line.CTR164676 bus1=BMT162579887.1.2.3,bus2=BMT162579888.1.2.3,Phases=3,LineCode=tieSwitch,Length=0.001,Units=km,switch=T !numEQ 161660
open line.CTR164676 term=1
new line.CTR164690 bus1=BMT162579871.1.2.3,bus2=BMT162579883.1.2.3,Phases=3,LineCode=tieSwitch,Length=0.001,Units=km,switch=T !numEQ 37707
new line.CTR164704 bus1=BMT162579898.1.2.3,bus2=BMT164628028.1.2.3,Phases=3,LineCode=tieSwitch,Length=0.001,Units=km,switch=T !numEQ 161662
new line.CTR164718 bus1=BMT162580827.1.2.3,bus2=BMT162579908.1.2.3,Phases=3,LineCode=tieSwitch,Length=0.001,Units=km,switch=T !numEQ 161663
open line.CTR164718 term=1
new line.CTR164921 bus1=BMT162580729.1.2.3,bus2=BMT169688573.1.2.3,Phases=3,LineCode=tieSwitch,Length=0.001,Units=km,switch=T !numEQ 161639
new line.CTR16514 bus1=BMT162580821.1.2.3,bus2=BMT162580824.1.2.3,Phases=3,LineCode=tieSwitch,Length=0.001,Units=km,switch=T !numEQ 161664
new line.CTR193656220 bus1=BMT2389066586.1.2.3,bus2=BMT2193656915.1.2.3,Phases=3,LineCode=tieSwitch,Length=0.001,Units=km,switch=T !numEQ 
new line.CTR193656238 bus1=BMT2193656953.1.2.3,bus2=BMT2389066585.1.2.3,Phases=3,LineCode=tieSwitch,Length=0.001,Units=km,switch=T !numEQ 
new line.CTR193656280 bus1=BMT2193656879.1.2.3,bus2=BMT2389066590.1.2.3,Phases=3,LineCode=tieSwitch,Length=0.001,Units=km,switch=T !numEQ 
new line.CTR193656294 bus1=BMT2193656867.1.2.3,bus2=BMT2389066588.1.2.3,Phases=3,LineCode=tieSwitch,Length=0.001,Units=km,switch=T !numEQ 
new line.CTR193656308 bus1=BMT2193656855.1.2.3,bus2=BMT2389066587.1.2.3,Phases=3,LineCode=tieSwitch,Length=0.001,Units=km,switch=T !numEQ 
new line.CTR193656322 bus1=BMT2193656841.1.2.3,bus2=BMT2389066589.1.2.3,Phases=3,LineCode=tieSwitch,Length=0.001,Units=km,switch=T !numEQ 
new line.CTR193656708 bus1=BMT2193655991.1.2.3,bus2=BMT2389066586.1.2.3,Phases=3,LineCode=tieSwitch,Length=0.001,Units=km,switch=T !numEQ 
new line.CTR193656724 bus1=BMT2389066585.1.2.3,bus2=BMT2193656070.1.2.3,Phases=3,LineCode=tieSwitch,Length=0.001,Units=km,switch=T !numEQ 
new line.CTR193656736 bus1=BMT2389066590.1.2.3,bus2=BMT2193656136.1.2.3,Phases=3,LineCode=tieSwitch,Length=0.001,Units=km,switch=T !numEQ 
new line.CTR193656748 bus1=BMT2389066588.1.2.3,bus2=BMT2193656154.1.2.3,Phases=3,LineCode=tieSwitch,Length=0.001,Units=km,switch=T !numEQ 
new line.CTR193656760 bus1=BMT2389066587.1.2.3,bus2=BMT2193656169.1.2.3,Phases=3,LineCode=tieSwitch,Length=0.001,Units=km,switch=T !numEQ 
new line.CTR193656772 bus1=BMT2389066589.1.2.3,bus2=BMT2193655991.1.2.3,Phases=3,LineCode=tieSwitch,Length=0.001,Units=km,switch=T !numEQ 
new line.CTR193656838 bus1=BMT2384119265.1.2.3,bus2=BMT2193656841.1.2.3,Phases=3,LineCode=tieSwitch,Length=0.001,Units=km,switch=T !numEQ 
new line.CTR193656854 bus1=BMT2384119289.1.2.3,bus2=BMT2193656855.1.2.3,Phases=3,LineCode=tieSwitch,Length=0.001,Units=km,switch=T !numEQ 
new line.CTR193656866 bus1=BMT2384119301.1.2.3,bus2=BMT2193656867.1.2.3,Phases=3,LineCode=tieSwitch,Length=0.001,Units=km,switch=T !numEQ 
new line.CTR193656878 bus1=BMT2384119313.1.2.3,bus2=BMT2193656879.1.2.3,Phases=3,LineCode=tieSwitch,Length=0.001,Units=km,switch=T !numEQ 
new line.CTR193656914 bus1=BMT2193656915.1.2.3,bus2=BMT2384119337.1.2.3,Phases=3,LineCode=tieSwitch,Length=0.001,Units=km,switch=T !numEQ 
new line.CTR193656926 bus1=BMT2384119325.1.2.3,bus2=BMT2193656953.1.2.3,Phases=3,LineCode=tieSwitch,Length=0.001,Units=km,switch=T !numEQ 
new line.CTR20924 bus1=BMT162580375.1,bus2=BMT162580512.1,Phases=1,LineCode=tieSwitch1,Length=0.001,Units=km,switch=T !numEQ 161855
new line.CTR33734 bus1=BMT162580814.1.2.3,bus2=BMT162580816.1.2.3,Phases=3,LineCode=tieSwitch,Length=0.001,Units=km,switch=T !numEQ 161661
new line.CTR36898 bus1=BMT162580986.1.2.3,bus2=BMT162580987.1.2.3,Phases=3,LineCode=tieSwitch,Length=0.001,Units=km,switch=T !numEQ 107885
new line.CTR42932 bus1=BMT150439131.1.2.3,bus2=BMT163772214.1.2.3,Phases=3,LineCode=tieSwitch,Length=0.001,Units=km,switch=T !numEQ 127340
new line.CTR42988 bus1=BMT162580262.1.2.3,bus2=BMT162580263.1.2.3,Phases=3,LineCode=tieSwitch,Length=0.001,Units=km,switch=T !numEQ 124511
open line.CTR42988 term=1
new line.CTR43044 bus1=BMT98293309.1.2.3,bus2=BMT171589282.1.2.3,Phases=3,LineCode=tieSwitch,Length=0.001,Units=km,switch=T !numEQ 36526
new line.CTR43114 bus1=BMT98293932.1.2.3,bus2=BMT164243801.1.2.3,Phases=3,LineCode=tieSwitch,Length=0.001,Units=km,switch=T !numEQ 36529
new line.CTR48007 bus1=BMT98295199.2,bus2=BMT98295325.2,Phases=1,LineCode=tieSwitch1,Length=0.001,Units=km,switch=T !numEQ 143757
new line.CTR48056 bus1=BMT165081810.1.2.3,bus2=BMT3919345.1.2.3,Phases=3,LineCode=tieSwitch,Length=0.001,Units=km,switch=T !numEQ 161266
open line.CTR48056 term=1
new line.CTR518974 bus1=BMT98289102.1.2.3,bus2=BMT150338827.1.2.3,Phases=3,LineCode=tieSwitch,Length=0.001,Units=km,switch=T !numEQ 140634
new line.CTR521998 bus1=BMT162580666.1.2.3,bus2=BMT168404911.1.2.3,Phases=3,LineCode=tieSwitch,Length=0.001,Units=km,switch=T !numEQ 161640
new line.CTR555892 bus1=BMT98303095.1.2.3,bus2=BMT98303123.1.2.3,Phases=3,LineCode=tieSwitch,Length=0.001,Units=km,switch=T !numEQ 131275
new line.CTR559616 bus1=BMT98287688.1.2.3,bus2=BMT98287828.1.2.3,Phases=3,LineCode=tieSwitch,Length=0.001,Units=km,switch=T !numEQ 36199
new line.CTR587406 bus1=BMT162581043.1.2.3,bus2=BMT162581044.1.2.3,Phases=3,LineCode=tieSwitch,Length=0.001,Units=km,switch=T !numEQ 107881
new line.CTR59109 bus1=BMT98300274.2,bus2=BMT170304051.2,Phases=1,LineCode=tieSwitch1,Length=0.001,Units=km,switch=T !numEQ 112452
new line.CTR624891 bus1=BMT162581041.1.2.3,bus2=BMT162581046.1.2.3,Phases=3,LineCode=tieSwitch,Length=0.001,Units=km,switch=T !numEQ 162804
new line.CTR625353 bus1=BMT98300533.1.2.3,bus2=BMT98300540.1.2.3,Phases=3,LineCode=tieSwitch,Length=0.001,Units=km,switch=T !numEQ 159896
new line.CTR626137 bus1=BMT169549262.1.2.3,bus2=BMT137640162.1.2.3,Phases=3,LineCode=tieSwitch,Length=0.001,Units=km,switch=T !numEQ 36517
new line.CTR699140 bus1=BMT162580904.1.2.3,bus2=BMT162580905.1.2.3,Phases=3,LineCode=tieSwitch,Length=0.001,Units=km,switch=T !numEQ 163474
new line.CTR73018 bus1=BMT98298237.3,bus2=BMT171819811.3,Phases=1,LineCode=tieSwitch1,Length=0.001,Units=km,switch=T !numEQ 34447
new line.CTR730213 bus1=BMT162580253.1,bus2=BMT162580323.1,Phases=1,LineCode=tieSwitch1,Length=0.001,Units=km,switch=T !numEQ 210777
new line.CTR73032 bus1=BMT98297726.2,bus2=BMT152573958.2,Phases=1,LineCode=tieSwitch1,Length=0.001,Units=km,switch=T !numEQ 34448
new line.CTR121962 bus1=BMT162580354.2,bus2=BMT162580361.2,Phases=1,LineCode=tieSwitch1,Length=0.001,Units=km,switch=T !numEQ 34313
new line.CTR143760 bus1=BMT98289179.1.2.3,bus2=BMT150338831.1.2.3,Phases=3,LineCode=tieSwitch,Length=0.001,Units=km,switch=T !numEQ 162089
new line.CTR145202 bus1=BMT162580406.1.2.3,bus2=BMT162580443.1.2.3,Phases=3,LineCode=tieSwitch,Length=0.001,Units=km,switch=T !numEQ 105502
new line.CTR171410 bus1=BMT98290740.1.2.3,bus2=BMT161234457.1.2.3,Phases=3,LineCode=tieSwitch,Length=0.001,Units=km,switch=T !numEQ 147188
new line.CTR171452 bus1=BMT98289613.1.2.3,bus2=BMT98290299.1.2.3,Phases=3,LineCode=tieSwitch,Length=0.001,Units=km,switch=T !numEQ 147186
new line.CTR171830 bus1=BMT98303536.3,bus2=BMT166978328.3,Phases=1,LineCode=tieSwitch1,Length=0.001,Units=km,switch=T !numEQ 143751
new line.CTR27448 bus1=BMT162580866.1,bus2=BMT162581019.1,Phases=1,LineCode=tieSwitch1,Length=0.001,Units=km,switch=T !numEQ 118879
new line.CTR38732 bus1=BMT163772335.1.2.3,bus2=BMT2346620.1.2.3,Phases=3,LineCode=tieSwitch,Length=0.001,Units=km,switch=T !numEQ 36197
new line.CTR41406 bus1=BMT98300897.3,bus2=BMT172166045.3,Phases=1,LineCode=tieSwitch1,Length=0.001,Units=km,switch=T !numEQ 163428
new line.CTR50100 bus1=BMT98292154.1.2.3,bus2=BMT98292175.1.2.3,Phases=3,LineCode=tieSwitch,Length=0.001,Units=km,switch=T !numEQ 161272
new line.CTR50226 bus1=BMT98299182.1,bus2=BMT98299245.1,Phases=1,LineCode=tieSwitch1,Length=0.001,Units=km,switch=T !numEQ 161549
new line.CTR50352 bus1=BMT162581026.1.2.3,bus2=BMT162581031.1.2.3,Phases=3,LineCode=tieSwitch,Length=0.001,Units=km,switch=T !numEQ 161386
new line.CTR50429 bus1=BMT98296340.2,bus2=BMT152573888.2,Phases=1,LineCode=tieSwitch1,Length=0.001,Units=km,switch=T !numEQ 161574
new line.CTR537188 bus1=BMT98289445.1.2.3,bus2=BMT163488156.1.2.3,Phases=3,LineCode=tieSwitch,Length=0.001,Units=km,switch=T !numEQ 36502
new line.CTR538952 bus1=BMT98300820.3,bus2=BMT98300855.3,Phases=1,LineCode=tieSwitch1,Length=0.001,Units=km,switch=T !numEQ 136729
new line.CTR539225 bus1=BMT162580626.1.2.3,bus2=BMT162580633.1.2.3,Phases=3,LineCode=tieSwitch,Length=0.001,Units=km,switch=T !numEQ 107871
new line.CTR539239 bus1=BMT162579943.1.2.3,bus2=BMT162580643.1.2.3,Phases=3,LineCode=tieSwitch,Length=0.001,Units=km,switch=T !numEQ 107874
new line.CTR539512 bus1=BMT98303046.1.2.3,bus2=BMT149088698.1.2.3,Phases=3,LineCode=tieSwitch,Length=0.001,Units=km,switch=T !numEQ 105529
new line.CTR567722 bus1=BMT162580408.1.2.3,bus2=BMT162580441.1.2.3,Phases=3,LineCode=tieSwitch,Length=0.001,Units=km,switch=T !numEQ 134515
new line.CTR568639 bus1=BMT164666167.1.2.3,bus2=BMT164891808.1.2.3,Phases=3,LineCode=tieSwitch,Length=0.001,Units=km,switch=T !numEQ 259670
new line.CTR569829 bus1=BMT98294310.1,bus2=BMT98294450.1,Phases=1,LineCode=tieSwitch1,Length=0.001,Units=km,switch=T !numEQ 35410
new line.CTR570179 bus1=BMT98303480.3,bus2=BMT168005301.3,Phases=1,LineCode=tieSwitch1,Length=0.001,Units=km,switch=T !numEQ 163083
new line.CTR608833 bus1=BMT164187061.1.2.3,bus2=BMT172619651.1.2.3,Phases=3,LineCode=tieSwitch,Length=0.001,Units=km,switch=T !numEQ 36538
new line.CTR63162 bus1=BMT162580530.1.2.3,bus2=BMT162580532.1.2.3,Phases=3,LineCode=tieSwitch,Length=0.001,Units=km,switch=T !numEQ 107869
new line.CTR655719 bus1=BMT98293183.1.2.3,bus2=BMT98293190.1.2.3,Phases=3,LineCode=tieSwitch,Length=0.001,Units=km,switch=T !numEQ 36522
new line.CTR655733 bus1=BMT166642948.1.2.3,bus2=BMT168394871.1.2.3,Phases=3,LineCode=tieSwitch,Length=0.001,Units=km,switch=T !numEQ 36561
new line.CTR655761 bus1=BMT162580235.1,bus2=BMT170729137.1,Phases=1,LineCode=tieSwitch1,Length=0.001,Units=km,switch=T !numEQ 36566
new line.CTR655775 bus1=BMT162579971.1.2.3,bus2=BMT172348600.1.2.3,Phases=3,LineCode=tieSwitch,Length=0.001,Units=km,switch=T !numEQ 36568
new line.CTR655789 bus1=BMT98290901.1.2.3,bus2=BMT165628847.1.2.3,Phases=3,LineCode=tieSwitch,Length=0.001,Units=km,switch=T !numEQ 36570
new line.CTR655887 bus1=BMT98293323.1.2.3,bus2=BMT160872147.1.2.3,Phases=3,LineCode=tieSwitch,Length=0.001,Units=km,switch=T !numEQ 36525
new line.CTR655929 bus1=BMT98296452.2,bus2=BMT152574131.2,Phases=1,LineCode=tieSwitch1,Length=0.001,Units=km,switch=T !numEQ 34445
new line.CTR655971 bus1=BMT172511728.1.2.3,bus2=BMT2026552.1.2.3,Phases=3,LineCode=tieSwitch,Length=0.001,Units=km,switch=T !numEQ 36533
open line.CTR655971 term=1
new line.CTR656167 bus1=BMT98289606.1.2.3,bus2=BMT98290250.1.2.3,Phases=3,LineCode=tieSwitch,Length=0.001,Units=km,switch=T !numEQ 36505
new line.CTR656685 bus1=BMT98286946.2,bus2=BMT165402447.2,Phases=1,LineCode=tieSwitch1,Length=0.001,Units=km,switch=T !numEQ 36546
new line.CTR657273 bus1=BMT162579872.1.2.3,bus2=BMT162579873.1.2.3,Phases=3,LineCode=tieSwitch,Length=0.001,Units=km,switch=T !numEQ 35414
new line.CTR657378 bus1=BMT98293316.1.2.3,bus2=BMT155405134.1.2.3,Phases=3,LineCode=tieSwitch,Length=0.001,Units=km,switch=T !numEQ 36551
new line.CTR657427 bus1=BMT98297061.2,bus2=BMT161038666.2,Phases=1,LineCode=tieSwitch1,Length=0.001,Units=km,switch=T !numEQ 304416
new line.CTR657441 bus1=BMT162579983.1,bus2=BMT162989422.1,Phases=1,LineCode=tieSwitch1,Length=0.001,Units=km,switch=T !numEQ 35381
new line.CTR657455 bus1=BMT162580543.1,bus2=BMT162580561.1,Phases=1,LineCode=tieSwitch1,Length=0.001,Units=km,switch=T !numEQ 35383
new line.CTR657469 bus1=BMT98294996.2,bus2=BMT161287806.2,Phases=1,LineCode=tieSwitch1,Length=0.001,Units=km,switch=T !numEQ 35384
new line.CTR657539 bus1=BMT98296606.2,bus2=BMT152574049.2,Phases=1,LineCode=tieSwitch1,Length=0.001,Units=km,switch=T !numEQ 35393
new line.CTR658967 bus1=BMT98291055.1.2.3,bus2=BMT160517787.1.2.3,Phases=3,LineCode=tieSwitch,Length=0.001,Units=km,switch=T !numEQ 37694
new line.CTR659961 bus1=BMT166467855.1.2.3,bus2=BMT22597710.1.2.3,Phases=3,LineCode=tieSwitch,Length=0.001,Units=km,switch=T !numEQ 161985
open line.CTR659961 term=1
new line.CTR660731 bus1=BMT98292168.1.2.3,bus2=BMT98289718.1.2.3,Phases=3,LineCode=tieSwitch,Length=0.001,Units=km,switch=T !numEQ 161267
open line.CTR660731 term=1
new line.CTR74278 bus1=BMT98286701.1.2.3,bus2=BMT166463111.1.2.3,Phases=3,LineCode=tieSwitch,Length=0.001,Units=km,switch=T !numEQ 34783
new line.CTR74306 bus1=BMT98287716.1.2.3,bus2=BMT98287723.1.2.3,Phases=3,LineCode=tieSwitch,Length=0.001,Units=km,switch=T !numEQ 34394
new line.CTR74320 bus1=BMT98286736.2,bus2=BMT164669517.2,Phases=1,LineCode=tieSwitch1,Length=0.001,Units=km,switch=T !numEQ 34782
new line.CTR74334 bus1=BMT98292049.1.2.3,bus2=BMT171195646.1.2.3,Phases=3,LineCode=tieSwitch,Length=0.001,Units=km,switch=T !numEQ 34785
new line.CTR74348 bus1=BMT98290628.1.2.3,bus2=BMT98292490.1.2.3,Phases=3,LineCode=tieSwitch,Length=0.001,Units=km,switch=T !numEQ 34786
new line.CTR119617 bus1=BMT98294149.1.2.3,bus2=BMT168393204.1.2.3,Phases=3,LineCode=tieSwitch,Length=0.001,Units=km,switch=T !numEQ 126622
new line.CTR134352 bus1=BMT162580358.1.2.3,bus2=BMT162580359.1.2.3,Phases=3,LineCode=tieSwitch,Length=0.001,Units=km,switch=T !numEQ 76191
new line.CTR168666 bus1=BMT162580230.1.2.3,bus2=BMT162580232.1.2.3,Phases=3,LineCode=tieSwitch,Length=0.001,Units=km,switch=T !numEQ 162958
new line.CTR168680 bus1=BMT162580233.2,bus2=BMT164663929.2,Phases=1,LineCode=tieSwitch1,Length=0.001,Units=km,switch=T !numEQ 162472
new line.CTR36142 bus1=BMT165091414.1.2.3,bus2=BMT162580228.1.2.3,Phases=3,LineCode=tieSwitch,Length=0.001,Units=km,switch=T !numEQ 161420
open line.CTR36142 term=1
new line.CTR45326 bus1=BMT162580630.1.2.3,bus2=BMT162580631.1.2.3,Phases=3,LineCode=tieSwitch,Length=0.001,Units=km,switch=T !numEQ 107872
new line.CTR45340 bus1=BMT162580008.1.2.3,bus2=BMT162580114.1.2.3,Phases=3,LineCode=tieSwitch,Length=0.001,Units=km,switch=T !numEQ 107870
new line.CTR515418 bus1=BMT169287763.1.2.3,bus2=BMT162580389.1.2.3,Phases=3,LineCode=tieSwitch,Length=0.001,Units=km,switch=T !numEQ 34799
new line.CTR517014 bus1=BMT150439431.3,bus2=BMT165502969.3,Phases=1,LineCode=tieSwitch1,Length=0.001,Units=km,switch=T !numEQ 36194
new line.CTR517336 bus1=BMT98300743.3,bus2=BMT98300883.3,Phases=1,LineCode=tieSwitch1,Length=0.001,Units=km,switch=T !numEQ 159892
new line.CTR574561 bus1=BMT98297600.2,bus2=BMT171413864.2,Phases=1,LineCode=tieSwitch1,Length=0.001,Units=km,switch=T !numEQ 37450
new line.CTR574645 bus1=BMT163097005.1.2.3,bus2=BMT162580288.1.2.3,Phases=3,LineCode=tieSwitch,Length=0.001,Units=km,switch=T !numEQ 34301
open line.CTR574645 term=1
new line.CTR574687 bus1=BMT163097006.1.2.3,bus2=BMT162580290.1.2.3,Phases=3,LineCode=tieSwitch,Length=0.001,Units=km,switch=T !numEQ 320633
open line.CTR574687 term=1
new line.CTR574715 bus1=BMT98294632.1.2.3,bus2=BMT152312229.1.2.3,Phases=3,LineCode=tieSwitch,Length=0.001,Units=km,switch=T !numEQ 34319
new line.CTR574729 bus1=BMT98287653.3,bus2=BMT98287940.3,Phases=1,LineCode=tieSwitch1,Length=0.001,Units=km,switch=T !numEQ 36925
new line.CTR574757 bus1=BMT171667845.1.2.3,bus2=BMT98287436.1.2.3,Phases=3,LineCode=tieSwitch,Length=0.001,Units=km,switch=T !numEQ 36547
new line.CTR575107 bus1=BMT98300008.1,bus2=BMT161454302.1,Phases=1,LineCode=tieSwitch1,Length=0.001,Units=km,switch=T !numEQ 34393
new line.CTR575135 bus1=BMT162579985.2,bus2=BMT162580212.2,Phases=1,LineCode=tieSwitch1,Length=0.001,Units=km,switch=T !numEQ 34465
new line.CTR575282 bus1=BMT98296571.2,bus2=BMT152574104.2,Phases=1,LineCode=tieSwitch1,Length=0.001,Units=km,switch=T !numEQ 34441
new line.CTR575296 bus1=BMT98296529.2,bus2=BMT152574116.2,Phases=1,LineCode=tieSwitch1,Length=0.001,Units=km,switch=T !numEQ 34442
new line.CTR575310 bus1=BMT98297698.2,bus2=BMT152573946.2,Phases=1,LineCode=tieSwitch1,Length=0.001,Units=km,switch=T !numEQ 34443
new line.CTR575324 bus1=BMT162580709.3,bus2=BMT162580712.3,Phases=1,LineCode=tieSwitch1,Length=0.001,Units=km,switch=T !numEQ 34470
new line.CTR575387 bus1=BMT98296067.1,bus2=BMT98300113.1,Phases=1,LineCode=tieSwitch1,Length=0.001,Units=km,switch=T !numEQ 34475
new line.CTR575422 bus1=BMT98296774.2,bus2=BMT171278181.2,Phases=1,LineCode=tieSwitch1,Length=0.001,Units=km,switch=T !numEQ 34478
new line.CTR575436 bus1=BMT98296739.2,bus2=BMT167792829.2,Phases=1,LineCode=tieSwitch1,Length=0.001,Units=km,switch=T !numEQ 34479
new line.CTR575695 bus1=BMT169940240.1.2.3,bus2=BMT162580424.1.2.3,Phases=3,LineCode=tieSwitch,Length=0.001,Units=km,switch=T !numEQ 34581
new line.CTR575940 bus1=BMT162580131.2,bus2=BMT162580136.2,Phases=1,LineCode=tieSwitch1,Length=0.001,Units=km,switch=T !numEQ 34647
new line.CTR575961 bus1=BMT98289221.2,bus2=BMT167359122.2,Phases=1,LineCode=tieSwitch1,Length=0.001,Units=km,switch=T !numEQ 34648
new line.CTR575975 bus1=BMT98291636.3,bus2=BMT160510457.3,Phases=1,LineCode=tieSwitch1,Length=0.001,Units=km,switch=T !numEQ 34649
new line.CTR575989 bus1=BMT98289641.1.2.3,bus2=BMT172493356.1.2.3,Phases=3,LineCode=tieSwitch,Length=0.001,Units=km,switch=T !numEQ 36506
new line.CTR576003 bus1=BMT162580883.1,bus2=BMT164839842.1,Phases=1,LineCode=tieSwitch1,Length=0.001,Units=km,switch=T !numEQ 34316
new line.CTR576101 bus1=BMT98289711.1,bus2=BMT98290194.1,Phases=1,LineCode=tieSwitch1,Length=0.001,Units=km,switch=T !numEQ 34659
new line.CTR576822 bus1=BMT98292756.1.2.3,bus2=BMT98293092.1.2.3,Phases=3,LineCode=tieSwitch,Length=0.001,Units=km,switch=T !numEQ 36518
new line.CTR577207 bus1=BMT98294681.1.2.3,bus2=BMT172454447.1.2.3,Phases=3,LineCode=tieSwitch,Length=0.001,Units=km,switch=T !numEQ 118009
new line.CTR577221 bus1=BMT98295962.1.2.3,bus2=BMT168453907.1.2.3,Phases=3,LineCode=tieSwitch,Length=0.001,Units=km,switch=T !numEQ 34932
new line.CTR577641 bus1=BMT98293106.1.2.3,bus2=BMT98293134.1.2.3,Phases=3,LineCode=tieSwitch,Length=0.001,Units=km,switch=T !numEQ 36519
new line.CTR577669 bus1=BMT162580093.2,bus2=BMT169538516.2,Phases=1,LineCode=tieSwitch1,Length=0.001,Units=km,switch=T !numEQ 126839
new line.CTR578656 bus1=BMT98294709.1,bus2=BMT161383465.1,Phases=1,LineCode=tieSwitch1,Length=0.001,Units=km,switch=T !numEQ 35385
new line.CTR578670 bus1=BMT98298951.1,bus2=BMT98299819.1,Phases=1,LineCode=tieSwitch1,Length=0.001,Units=km,switch=T !numEQ 35387
new line.CTR578698 bus1=BMT98299084.1,bus2=BMT171845739.1,Phases=1,LineCode=tieSwitch1,Length=0.001,Units=km,switch=T !numEQ 35392
new line.CTR642237 bus1=BMT162580525.1.2.3,bus2=BMT163685923.1.2.3,Phases=3,LineCode=tieSwitch,Length=0.001,Units=km,switch=T !numEQ 126842
new line.CTR644015 bus1=BMT98294688.1.2.3,bus2=BMT149187848.1.2.3,Phases=3,LineCode=tieSwitch,Length=0.001,Units=km,switch=T !numEQ 36862
new line.CTR644029 bus1=BMT98296172.1.2.3,bus2=BMT158500430.1.2.3,Phases=3,LineCode=tieSwitch,Length=0.001,Units=km,switch=T !numEQ 36864
new line.CTR644057 bus1=BMT98298986.1,bus2=BMT168182725.1,Phases=1,LineCode=tieSwitch1,Length=0.001,Units=km,switch=T !numEQ 36867
new line.CTR644071 bus1=BMT98298937.1,bus2=BMT156662319.1,Phases=1,LineCode=tieSwitch1,Length=0.001,Units=km,switch=T !numEQ 36869
new line.CTR71100 bus1=BMT162580156.2,bus2=BMT162580192.2,Phases=1,LineCode=tieSwitch1,Length=0.001,Units=km,switch=T !numEQ 126838
new line.CTR711306 bus1=BMT98300687.3,bus2=BMT98300953.3,Phases=1,LineCode=tieSwitch1,Length=0.001,Units=km,switch=T !numEQ 210761
new line.CTR712167 bus1=BMT98303382.3,bus2=BMT165172932.3,Phases=1,LineCode=tieSwitch1,Length=0.001,Units=km,switch=T !numEQ 198510
new line.CTR713448 bus1=BMT162580544.1,bus2=BMT171018937.1,Phases=1,LineCode=tieSwitch1,Length=0.001,Units=km,switch=T !numEQ 198128
new line.CTR109348 bus1=BMT172351106.1.2.3,bus2=BMT2403159.1.2.3,Phases=3,LineCode=tieSwitch,Length=0.001,Units=km,switch=T !numEQ 36560
open line.CTR109348 term=1
new line.CTR120310 bus1=BMT162580688.3,bus2=BMT162580691.3,Phases=1,LineCode=tieSwitch1,Length=0.001,Units=km,switch=T !numEQ 37204
new line.CTR120506 bus1=BMT162580005.2,bus2=BMT162580083.2,Phases=1,LineCode=tieSwitch1,Length=0.001,Units=km,switch=T !numEQ 159728
new line.CTR120674 bus1=BMT98292791.1.2.3,bus2=BMT148383233.1.2.3,Phases=3,LineCode=tieSwitch,Length=0.001,Units=km,switch=T !numEQ 76126
new line.CTR159454 bus1=BMT98290264.1.2.3,bus2=BMT98290285.1.2.3,Phases=3,LineCode=tieSwitch,Length=0.001,Units=km,switch=T !numEQ 163408
new line.CTR45872 bus1=BMT162579891.1.2.3,bus2=BMT162580762.1.2.3,Phases=3,LineCode=tieSwitch,Length=0.001,Units=km,switch=T !numEQ 34323
new line.CTR45907 bus1=BMT162580444.1.2.3,bus2=BMT162580445.1.2.3,Phases=3,LineCode=tieSwitch,Length=0.001,Units=km,switch=T !numEQ 105503
new line.CTR510028 bus1=BMT98291510.1.2.3,bus2=BMT98291713.1.2.3,Phases=3,LineCode=tieSwitch,Length=0.001,Units=km,switch=T !numEQ 117997
new line.CTR511162 bus1=BMT162580819.1.2.3,bus2=BMT162580822.1.2.3,Phases=3,LineCode=tieSwitch,Length=0.001,Units=km,switch=T !numEQ 107884
new line.CTR511176 bus1=BMT98292812.1.2.3,bus2=BMT98292994.1.2.3,Phases=3,LineCode=tieSwitch,Length=0.001,Units=km,switch=T !numEQ 107883
new line.CTR511190 bus1=BMT98290481.1.2.3,bus2=BMT150338835.1.2.3,Phases=3,LineCode=tieSwitch,Length=0.001,Units=km,switch=T !numEQ 107879
new line.CTR511197 bus1=BMT98292875.1.2.3,bus2=BMT98292896.1.2.3,Phases=3,LineCode=tieSwitch,Length=0.001,Units=km,switch=T !numEQ 107882
new line.CTR511211 bus1=BMT98300995.1.2.3,bus2=BMT98301002.1.2.3,Phases=3,LineCode=tieSwitch,Length=0.001,Units=km,switch=T !numEQ 107886
new line.CTR511225 bus1=BMT98290705.1.2.3,bus2=BMT150338837.1.2.3,Phases=3,LineCode=tieSwitch,Length=0.001,Units=km,switch=T !numEQ 107880
new line.CTR511974 bus1=BMT162579932.1,bus2=BMT162580652.1,Phases=1,LineCode=tieSwitch1,Length=0.001,Units=km,switch=T !numEQ 118878
new line.CTR512002 bus1=BMT162579911.1.2.3,bus2=BMT163910380.1.2.3,Phases=3,LineCode=tieSwitch,Length=0.001,Units=km,switch=T !numEQ 107889
new line.CTR512016 bus1=BMT162579914.1.2.3,bus2=BMT162580756.1.2.3,Phases=3,LineCode=tieSwitch,Length=0.001,Units=km,switch=T !numEQ 118877
new line.CTR513395 bus1=BMT98298944.3,bus2=BMT172305110.3,Phases=1,LineCode=tieSwitch1,Length=0.001,Units=km,switch=T !numEQ 126851
new line.CTR578789 bus1=BMT162579885.1.2.3,bus2=BMT162579886.1.2.3,Phases=3,LineCode=tieSwitch,Length=0.001,Units=km,switch=T !numEQ 35413
new line.CTR579083 bus1=BMT162580000.1.2.3,bus2=BMT162580127.1.2.3,Phases=3,LineCode=tieSwitch,Length=0.001,Units=km,switch=T !numEQ 131293
new line.CTR579265 bus1=BMT98294863.2,bus2=BMT98295465.2,Phases=1,LineCode=tieSwitch1,Length=0.001,Units=km,switch=T !numEQ 34399
new line.CTR579503 bus1=BMT98294002.1.2.3,bus2=BMT172511718.1.2.3,Phases=3,LineCode=tieSwitch,Length=0.001,Units=km,switch=T !numEQ 36532
new line.CTR579559 bus1=BMT169549263.1.2.3,bus2=BMT79226506.1.2.3,Phases=3,LineCode=tieSwitch,Length=0.001,Units=km,switch=T !numEQ 36520
open line.CTR579559 term=1
new line.CTR579587 bus1=BMT98291076.3,bus2=BMT98291083.3,Phases=1,LineCode=tieSwitch1,Length=0.001,Units=km,switch=T !numEQ 36535
new line.CTR579594 bus1=BMT162579935.1.2.3,bus2=BMT162579937.1.2.3,Phases=3,LineCode=tieSwitch,Length=0.001,Units=km,switch=T !numEQ 36537
new line.CTR579608 bus1=BMT162580249.1.2.3,bus2=BMT165089630.1.2.3,Phases=3,LineCode=tieSwitch,Length=0.001,Units=km,switch=T !numEQ 36539
new line.CTR580119 bus1=BMT98287702.1.2.3,bus2=BMT156632004.1.2.3,Phases=3,LineCode=tieSwitch,Length=0.001,Units=km,switch=T !numEQ 36743
new line.CTR580343 bus1=BMT98293512.1.2.3,bus2=BMT98293897.1.2.3,Phases=3,LineCode=tieSwitch,Length=0.001,Units=km,switch=T !numEQ 128952
new line.CTR580525 bus1=BMT98296074.1.2.3,bus2=BMT158503546.1.2.3,Phases=3,LineCode=tieSwitch,Length=0.001,Units=km,switch=T !numEQ 36868
new line.CTR580679 bus1=BMT162579933.2,bus2=BMT162580649.2,Phases=1,LineCode=tieSwitch1,Length=0.001,Units=km,switch=T !numEQ 36918
new line.CTR581309 bus1=BMT98287415.1.2.3,bus2=BMT171909847.1.2.3,Phases=3,LineCode=tieSwitch,Length=0.001,Units=km,switch=T !numEQ 37213
new line.CTR581827 bus1=BMT98293169.1.2.3,bus2=BMT171733801.1.2.3,Phases=3,LineCode=tieSwitch,Length=0.001,Units=km,switch=T !numEQ 37449
new line.CTR582415 bus1=BMT98292546.1.2.3,bus2=BMT152549514.1.2.3,Phases=3,LineCode=tieSwitch,Length=0.001,Units=km,switch=T !numEQ 37698
new line.CTR582429 bus1=BMT162579890.1.2.3,bus2=BMT2026223.1.2.3,Phases=3,LineCode=tieSwitch,Length=0.001,Units=km,switch=T !numEQ 37699
open line.CTR582429 term=1
new line.CTR582485 bus1=BMT162580257.1.2.3,bus2=BMT162580258.1.2.3,Phases=3,LineCode=tieSwitch,Length=0.001,Units=km,switch=T !numEQ 37708
new line.CTR582499 bus1=BMT98294338.1,bus2=BMT98294345.1,Phases=1,LineCode=tieSwitch1,Length=0.001,Units=km,switch=T !numEQ 37709
new line.CTR582513 bus1=BMT98294527.3,bus2=BMT98294583.3,Phases=1,LineCode=tieSwitch1,Length=0.001,Units=km,switch=T !numEQ 37711
new line.CTR582527 bus1=BMT123088149.2,bus2=BMT123089647.2,Phases=1,LineCode=tieSwitch1,Length=0.001,Units=km,switch=T !numEQ 37713
new line.CTR582541 bus1=BMT98294044.1.2.3,bus2=BMT98294051.1.2.3,Phases=3,LineCode=tieSwitch,Length=0.001,Units=km,switch=T !numEQ 37714
new line.CTR645009 bus1=BMT98292630.1.2.3,bus2=BMT98301016.1.2.3,Phases=3,LineCode=tieSwitch,Length=0.001,Units=km,switch=T !numEQ 147178
new line.CTR646017 bus1=BMT98288969.1.2.3,bus2=BMT98289165.1.2.3,Phases=3,LineCode=tieSwitch,Length=0.001,Units=km,switch=T !numEQ 107860
new line.CTR703046 bus1=BMT98299462.1,bus2=BMT168456025.1,Phases=1,LineCode=tieSwitch1,Length=0.001,Units=km,switch=T !numEQ 163368
new line.CTR704299 bus1=BMT98297782.2,bus2=BMT152573974.2,Phases=1,LineCode=tieSwitch1,Length=0.001,Units=km,switch=T !numEQ 197837
new line.CTR705426 bus1=BMT162580888.1.2.3,bus2=BMT168227266.1.2.3,Phases=3,LineCode=tieSwitch,Length=0.001,Units=km,switch=T !numEQ 163477
new line.CTR707190 bus1=BMT162580597.1,bus2=BMT162580605.1,Phases=1,LineCode=tieSwitch1,Length=0.001,Units=km,switch=T !numEQ 197834
new line.CTR785940 bus1=BMT163690457.1.2.3,bus2=BMT168344842.1.2.3,Phases=3,LineCode=tieSwitch,Length=0.001,Units=km,switch=T !numEQ 290184
new line.CTR786038 bus1=BMT105699526.1.2.3,bus2=BMT105703950.1.2.3,Phases=3,LineCode=tieSwitch,Length=0.001,Units=km,switch=T !numEQ 290180
new line.CTR787214 bus1=BMT106226213.1.2.3,bus2=BMT173122648.1.2.3,Phases=3,LineCode=tieSwitch,Length=0.001,Units=km,switch=T !numEQ 289928
new line.CTR787228 bus1=BMT106228054.1.2.3,bus2=BMT106228068.1.2.3,Phases=3,LineCode=tieSwitch,Length=0.001,Units=km,switch=T !numEQ 289798
new line.CTR106072 bus1=BMT98293946.1.2.3,bus2=BMT172091006.1.2.3,Phases=3,LineCode=tieSwitch,Length=0.001,Units=km,switch=T !numEQ 36536
new line.CTR141464 bus1=BMT98293421.1.2.3,bus2=BMT162802235.1.2.3,Phases=3,LineCode=tieSwitch,Length=0.001,Units=km,switch=T !numEQ 36922
new line.CTR141786 bus1=BMT98293176.1.2.3,bus2=BMT98300631.1.2.3,Phases=3,LineCode=tieSwitch,Length=0.001,Units=km,switch=T !numEQ 36855
new line.CTR141800 bus1=BMT98296025.1.2.3,bus2=BMT166128203.1.2.3,Phases=3,LineCode=tieSwitch,Length=0.001,Units=km,switch=T !numEQ 36863
new line.CTR141814 bus1=BMT162579974.2,bus2=BMT170970258.2,Phases=1,LineCode=tieSwitch1,Length=0.001,Units=km,switch=T !numEQ 36859
new line.CTR141884 bus1=BMT98293568.1.2.3,bus2=BMT98293610.1.2.3,Phases=3,LineCode=tieSwitch,Length=0.001,Units=km,switch=T !numEQ 128951
new line.CTR152804 bus1=BMT162580017.2,bus2=BMT164602983.2,Phases=1,LineCode=tieSwitch1,Length=0.001,Units=km,switch=T !numEQ 34307
new line.CTR153700 bus1=BMT98287450.1.2.3,bus2=BMT98287457.1.2.3,Phases=3,LineCode=tieSwitch,Length=0.001,Units=km,switch=T !numEQ 36543
new line.CTR166300 bus1=BMT162580854.1.2.3,bus2=BMT162581025.1.2.3,Phases=3,LineCode=tieSwitch,Length=0.001,Units=km,switch=T !numEQ 162803
new line.CTR17928 bus1=BMT98286596.1.2.3,bus2=BMT166467853.1.2.3,Phases=3,LineCode=tieSwitch,Length=0.001,Units=km,switch=T !numEQ 161984
new line.CTR18530 bus1=BMT163488160.1.2.3,bus2=BMT2026377.1.2.3,Phases=3,LineCode=tieSwitch,Length=0.001,Units=km,switch=T !numEQ 37717
open line.CTR18530 term=1
new line.CTR19748 bus1=BMT162579977.1.2.3,bus2=BMT165090843.1.2.3,Phases=3,LineCode=tieSwitch,Length=0.001,Units=km,switch=T !numEQ 161421
new line.CTR19804 bus1=BMT98286498.1.2.3,bus2=BMT165103288.1.2.3,Phases=3,LineCode=tieSwitch,Length=0.001,Units=km,switch=T !numEQ 161644
new line.CTR2563 bus1=BMT98299959.1,bus2=BMT98300078.1,Phases=1,LineCode=tieSwitch1,Length=0.001,Units=km,switch=T !numEQ 197914
new line.CTR39369 bus1=BMT162580933.1,bus2=BMT171251912.1,Phases=1,LineCode=tieSwitch1,Length=0.001,Units=km,switch=T !numEQ 130982
new line.CTR43282 bus1=BMT162579984.3,bus2=BMT162580042.3,Phases=1,LineCode=tieSwitch1,Length=0.001,Units=km,switch=T !numEQ 144326
new line.CTR43506 bus1=BMT98293260.1.2.3,bus2=BMT164088388.1.2.3,Phases=3,LineCode=tieSwitch,Length=0.001,Units=km,switch=T !numEQ 36524
new line.CTR43527 bus1=BMT153046277.1.2.3,bus2=BMT2608896.1.2.3,Phases=3,LineCode=tieSwitch,Length=0.001,Units=km,switch=T !numEQ 36540
open line.CTR43527 term=1
new line.CTR551174 bus1=BMT98293435.2,bus2=BMT98300442.2,Phases=1,LineCode=tieSwitch1,Length=0.001,Units=km,switch=T !numEQ 127928
new line.CTR55140 bus1=BMT98286687.1.2.3,bus2=BMT154657752.1.2.3,Phases=3,LineCode=tieSwitch,Length=0.001,Units=km,switch=T !numEQ 36545
new line.CTR552434 bus1=BMT98290397.1.2.3,bus2=BMT98290418.1.2.3,Phases=3,LineCode=tieSwitch,Length=0.001,Units=km,switch=T !numEQ 161501
new line.CTR552672 bus1=BMT162580807.1.2.3,bus2=BMT3638365.1.2.3,Phases=3,LineCode=tieSwitch,Length=0.001,Units=km,switch=T !numEQ 161256
open line.CTR552672 term=1
new line.CTR552686 bus1=BMT162580808.1.2.3,bus2=BMT162580809.1.2.3,Phases=3,LineCode=tieSwitch,Length=0.001,Units=km,switch=T !numEQ 36852
new line.CTR552700 bus1=BMT98287296.1.2.3,bus2=BMT137458078.1.2.3,Phases=3,LineCode=tieSwitch,Length=0.001,Units=km,switch=T !numEQ 161645
new line.CTR552728 bus1=BMT98287324.1.2.3,bus2=BMT164785935.1.2.3,Phases=3,LineCode=tieSwitch,Length=0.001,Units=km,switch=T !numEQ 161263
new line.CTR552910 bus1=BMT98286463.1.2.3,bus2=BMT152549404.1.2.3,Phases=3,LineCode=tieSwitch,Length=0.001,Units=km,switch=T !numEQ 161264
new line.CTR552980 bus1=BMT98286547.1.2.3,bus2=BMT166957187.1.2.3,Phases=3,LineCode=tieSwitch,Length=0.001,Units=km,switch=T !numEQ 161296
new line.CTR553176 bus1=BMT162580802.1.2.3,bus2=BMT170420196.1.2.3,Phases=3,LineCode=tieSwitch,Length=0.001,Units=km,switch=T !numEQ 161254
new line.CTR553190 bus1=BMT162579869.1.2.3,bus2=BMT162579870.1.2.3,Phases=3,LineCode=tieSwitch,Length=0.001,Units=km,switch=T !numEQ 37696
new line.CTR553358 bus1=BMT98287555.1.2.3,bus2=BMT149964211.1.2.3,Phases=3,LineCode=tieSwitch,Length=0.001,Units=km,switch=T !numEQ 36558
new line.CTR553372 bus1=BMT2419469.1.2.3,bus2=BMT164966252.1.2.3,Phases=3,LineCode=tieSwitch,Length=0.001,Units=km,switch=T !numEQ 37205
new line.CTR677937 bus1=BMT162580984.1.2.3,bus2=BMT162580989.1.2.3,Phases=3,LineCode=tieSwitch,Length=0.001,Units=km,switch=T !numEQ 198482
new line.CTR679778 bus1=BMT162579956.1.2.3,bus2=BMT162580624.1.2.3,Phases=3,LineCode=tieSwitch,Length=0.001,Units=km,switch=T !numEQ 163254
new line.CTR721932 bus1=BMT98286953.1,bus2=BMT160697755.1,Phases=1,LineCode=tieSwitch1,Length=0.001,Units=km,switch=T !numEQ 210242
new line.CTR72388 bus1=BMT162580254.1.2.3,bus2=BMT162580327.1.2.3,Phases=3,LineCode=tieSwitch,Length=0.001,Units=km,switch=T !numEQ 222405
new line.CTR72430 bus1=BMT98296382.2,bus2=BMT152573893.2,Phases=1,LineCode=tieSwitch1,Length=0.001,Units=km,switch=T !numEQ 37446
new line.CTR72486 bus1=BMT98294765.2,bus2=BMT150085289.2,Phases=1,LineCode=tieSwitch1,Length=0.001,Units=km,switch=T !numEQ 118008
new line.CTR72514 bus1=BMT98303270.3,bus2=BMT172300477.3,Phases=1,LineCode=tieSwitch1,Length=0.001,Units=km,switch=T !numEQ 34317
new line.CTR72528 bus1=BMT162580677.2,bus2=BMT162580699.2,Phases=1,LineCode=tieSwitch1,Length=0.001,Units=km,switch=T !numEQ 34318
new line.CTR72780 bus1=BMT98290887.1.2.3,bus2=BMT156404132.1.2.3,Phases=3,LineCode=tieSwitch,Length=0.001,Units=km,switch=T !numEQ 34388
new line.CTR810503 bus1=BMT122918308.2,bus2=BMT152574093.2,Phases=1,LineCode=tieSwitch1,Length=0.001,Units=km,switch=T !numEQ 304415
new line.CTR815053 bus1=BMT126958288.1.2.3,bus2=BMT151518651.1.2.3,Phases=3,LineCode=tieSwitch,Length=0.001,Units=km,switch=T !numEQ 300007
new line.CTR851269 bus1=BMT150158813.1.2.3,bus2=BMT150158830.1.2.3,Phases=3,LineCode=tieSwitch,Length=0.001,Units=km,switch=T !numEQ 379433
new line.CTR851458 bus1=BMT150217618.1.2.3,bus2=BMT161245894.1.2.3,Phases=3,LineCode=tieSwitch,Length=0.001,Units=km,switch=T !numEQ 375855
new line.CTR851954 bus1=BMT150438405.1.2.3,bus2=BMT150441020.1.2.3,Phases=3,LineCode=tieSwitch,Length=0.001,Units=km,switch=T !numEQ 299877
new line.CTR870228 bus1=BMT155730802.1.2.3,bus2=BMT157401022.1.2.3,Phases=3,LineCode=tieSwitch,Length=0.001,Units=km,switch=T !numEQ 246073
new line.CTR870235 bus1=BMT155733659.1.2.3,bus2=BMT156709330.1.2.3,Phases=3,LineCode=tieSwitch,Length=0.001,Units=km,switch=T !numEQ 235516
new line.CTR870361 bus1=BMT155762301.1.2.3,bus2=BMT156684074.1.2.3,Phases=3,LineCode=tieSwitch,Length=0.001,Units=km,switch=T !numEQ 237617
new line.CTR870473 bus1=BMT155792394.1.2.3,bus2=BMT155793151.1.2.3,Phases=3,LineCode=tieSwitch,Length=0.001,Units=km,switch=T !numEQ 243847
new line.CTR12426 bus1=BMT162579939.1.2.3,bus2=BMT162580647.1.2.3,Phases=3,LineCode=tieSwitch,Length=0.001,Units=km,switch=T !numEQ 210526
new line.CTR12454 bus1=BMT98299021.1,bus2=BMT98299511.1,Phases=1,LineCode=tieSwitch1,Length=0.001,Units=km,switch=T !numEQ 105524
new line.CTR12468 bus1=BMT162579944.1.2.3,bus2=BMT165091455.1.2.3,Phases=3,LineCode=tieSwitch,Length=0.001,Units=km,switch=T !numEQ 107891
new line.CTR149199 bus1=BMT98296578.2,bus2=BMT152574096.2,Phases=1,LineCode=tieSwitch1,Length=0.001,Units=km,switch=T !numEQ 37319
new line.CTR150284 bus1=BMT162580261.1.2.3,bus2=BMT163096994.1.2.3,Phases=3,LineCode=tieSwitch,Length=0.001,Units=km,switch=T !numEQ 35072
new line.CTR42302 bus1=BMT98287534.1,bus2=BMT166463788.1,Phases=1,LineCode=tieSwitch1,Length=0.001,Units=km,switch=T !numEQ 36548
new line.CTR42330 bus1=BMT98288052.1,bus2=BMT138988523.1,Phases=1,LineCode=tieSwitch1,Length=0.001,Units=km,switch=T !numEQ 34638
new line.CTR43646 bus1=BMT98299119.1,bus2=BMT98299357.1,Phases=1,LineCode=tieSwitch1,Length=0.001,Units=km,switch=T !numEQ 36860
new line.CTR43660 bus1=BMT98299133.1,bus2=BMT165271363.1,Phases=1,LineCode=tieSwitch1,Length=0.001,Units=km,switch=T !numEQ 34474
new line.CTR43674 bus1=BMT98299175.1,bus2=BMT98299287.1,Phases=1,LineCode=tieSwitch1,Length=0.001,Units=km,switch=T !numEQ 34473
new line.CTR43772 bus1=BMT162580913.1,bus2=BMT162580926.1,Phases=1,LineCode=tieSwitch1,Length=0.001,Units=km,switch=T !numEQ 126841
new line.CTR49645 bus1=BMT98288717.3,bus2=BMT98289375.3,Phases=1,LineCode=tieSwitch1,Length=0.001,Units=km,switch=T !numEQ 35379
new line.CTR50044 bus1=BMT98297201.2,bus2=BMT152574100.2,Phases=1,LineCode=tieSwitch1,Length=0.001,Units=km,switch=T !numEQ 136951
new line.CTR525932 bus1=BMT162580870.1.2.3,bus2=BMT162580871.1.2.3,Phases=3,LineCode=tieSwitch,Length=0.001,Units=km,switch=T !numEQ 161657
new line.CTR526072 bus1=BMT98302899.1.2.3,bus2=BMT155730974.1.2.3,Phases=3,LineCode=tieSwitch,Length=0.001,Units=km,switch=T !numEQ 163457
new line.CTR52704 bus1=BMT98294786.2,bus2=BMT98295717.2,Phases=1,LineCode=tieSwitch1,Length=0.001,Units=km,switch=T !numEQ 36754
new line.CTR560981 bus1=BMT162579963.1,bus2=BMT171995228.1,Phases=1,LineCode=tieSwitch1,Length=0.001,Units=km,switch=T !numEQ 36567
new line.CTR597213 bus1=BMT98288486.3,bus2=BMT98288556.3,Phases=1,LineCode=tieSwitch1,Length=0.001,Units=km,switch=T !numEQ 34322
new line.CTR633893 bus1=BMT167595033.1.2.3,bus2=BMT98293449.1.2.3,Phases=3,LineCode=tieSwitch,Length=0.001,Units=km,switch=T !numEQ 36528
new line.CTR666793 bus1=BMT162580876.1.2.3,bus2=BMT162580932.1.2.3,Phases=3,LineCode=tieSwitch,Length=0.001,Units=km,switch=T !numEQ 36186
new line.CTR667003 bus1=BMT162580863.1.2.3,bus2=BMT162581023.1.2.3,Phases=3,LineCode=tieSwitch,Length=0.001,Units=km,switch=T !numEQ 131313
new line.CTR668907 bus1=BMT98297425.2,bus2=BMT152574161.2,Phases=1,LineCode=tieSwitch1,Length=0.001,Units=km,switch=T !numEQ 160083
new line.CTR668977 bus1=BMT98303557.3,bus2=BMT156555943.3,Phases=1,LineCode=tieSwitch1,Length=0.001,Units=km,switch=T !numEQ 147319
new line.CTR66914 bus1=BMT162580088.2,bus2=BMT162580107.2,Phases=1,LineCode=tieSwitch1,Length=0.001,Units=km,switch=T !numEQ 126840
new line.CTR669551 bus1=BMT162580414.3,bus2=BMT162580426.3,Phases=1,LineCode=tieSwitch1,Length=0.001,Units=km,switch=T !numEQ 162800
new line.CTR73634 bus1=BMT98288213.1.2.3,bus2=BMT98288220.1.2.3,Phases=3,LineCode=tieSwitch,Length=0.001,Units=km,switch=T !numEQ 118978
new line.CTR73704 bus1=BMT98294800.2,bus2=BMT98295675.2,Phases=1,LineCode=tieSwitch1,Length=0.001,Units=km,switch=T !numEQ 34639
new line.CTR73718 bus1=BMT98297642.2,bus2=BMT158391420.2,Phases=1,LineCode=tieSwitch1,Length=0.001,Units=km,switch=T !numEQ 34643
new line.CTR73746 bus1=BMT98298482.3,bus2=BMT167652773.3,Phases=1,LineCode=tieSwitch1,Length=0.001,Units=km,switch=T !numEQ 34645
new line.CTR73760 bus1=BMT162580070.2,bus2=BMT162580078.2,Phases=1,LineCode=tieSwitch1,Length=0.001,Units=km,switch=T !numEQ 34646
new line.CTR737724 bus1=BMT98303620.3,bus2=BMT165180616.3,Phases=1,LineCode=tieSwitch1,Length=0.001,Units=km,switch=T !numEQ 210874
new line.CTR740937 bus1=BMT98292924.1.2.3,bus2=BMT98292980.1.2.3,Phases=3,LineCode=tieSwitch,Length=0.001,Units=km,switch=T !numEQ 221902
new line.CTR755189 bus1=BMT98302969.1.2.3,bus2=BMT155550555.1.2.3,Phases=3,LineCode=tieSwitch,Length=0.001,Units=km,switch=T !numEQ 284838
new line.CTR756274 bus1=BMT98289704.1.2.3,bus2=BMT166281962.1.2.3,Phases=3,LineCode=tieSwitch,Length=0.001,Units=km,switch=T !numEQ 222444
new line.CTR756281 bus1=BMT98290061.1.2.3,bus2=BMT170739344.1.2.3,Phases=3,LineCode=tieSwitch,Length=0.001,Units=km,switch=T !numEQ 222418
new line.CTR756295 bus1=BMT98290075.1.2.3,bus2=BMT170523332.1.2.3,Phases=3,LineCode=tieSwitch,Length=0.001,Units=km,switch=T !numEQ 222446
new line.CTR756764 bus1=BMT162580266.1,bus2=BMT162580267.1,Phases=1,LineCode=tieSwitch1,Length=0.001,Units=km,switch=T !numEQ 210551
new line.CTR857601 bus1=BMT152100772.1.2.3,bus2=BMT168225125.1.2.3,Phases=3,LineCode=tieSwitch,Length=0.001,Units=km,switch=T !numEQ 382221
new line.CTR869917 bus1=BMT162580892.1.2.3,bus2=BMT162580909.1.2.3,Phases=3,LineCode=tieSwitch,Length=0.001,Units=km,switch=T !numEQ 234025
new line.CTR877496 bus1=BMT158039842.1.2.3,bus2=BMT158812825.1.2.3,Phases=3,LineCode=tieSwitch,Length=0.001,Units=km,switch=T !numEQ 246468
new line.CTR878468 bus1=BMT162580422.3,bus2=BMT162580429.3,Phases=1,LineCode=tieSwitch1,Length=0.001,Units=km,switch=T !numEQ 253382
new line.CTR889339 bus1=BMT162779868.1.2.3,bus2=BMT162779869.1.2.3,Phases=3,LineCode=tieSwitch,Length=0.001,Units=km,switch=T !numEQ 254194
new line.CTR889411 bus1=BMT163910384.1.2.3,bus2=BMT163910386.1.2.3,Phases=3,LineCode=tieSwitch,Length=0.001,Units=km,switch=T !numEQ 266755
new line.CTR889788 bus1=BMT164249669.1.2.3,bus2=BMT164249670.1.2.3,Phases=3,LineCode=tieSwitch,Length=0.001,Units=km,switch=T !numEQ 254213
new line.CTR889789 bus1=BMT162979825.1.2.3,bus2=BMT168239283.1.2.3,Phases=3,LineCode=tieSwitch,Length=0.001,Units=km,switch=T !numEQ 254214
new line.CTR889790 bus1=BMT162979835.1.2.3,bus2=BMT164787470.1.2.3,Phases=3,LineCode=tieSwitch,Length=0.001,Units=km,switch=T !numEQ 254216
new line.CTR889796 bus1=BMT164255384.3,bus2=BMT164781162.3,Phases=1,LineCode=tieSwitch1,Length=0.001,Units=km,switch=T !numEQ 254217
new line.CTR889797 bus1=BMT162980279.3,bus2=BMT162980290.3,Phases=1,LineCode=tieSwitch1,Length=0.001,Units=km,switch=T !numEQ 254218
new line.CTR889798 bus1=BMT162980320.1.2.3,bus2=BMT162980453.1.2.3,Phases=3,LineCode=tieSwitch,Length=0.001,Units=km,switch=T !numEQ 254219
new line.CTR10214 bus1=BMT162580867.1.2.3,bus2=BMT162580975.1.2.3,Phases=3,LineCode=tieSwitch,Length=0.001,Units=km,switch=T !numEQ 118880
new line.CTR10228 bus1=BMT162580979.2,bus2=BMT166266394.2,Phases=1,LineCode=tieSwitch1,Length=0.001,Units=km,switch=T !numEQ 36577
new line.CTR138832 bus1=BMT98303109.1.2.3,bus2=BMT167654919.1.2.3,Phases=3,LineCode=tieSwitch,Length=0.001,Units=km,switch=T !numEQ 161031
new line.CTR138874 bus1=BMT98300526.1.2.3,bus2=BMT150338839.1.2.3,Phases=3,LineCode=tieSwitch,Length=0.001,Units=km,switch=T !numEQ 161071
new line.CTR153854 bus1=BMT164801271.1.2.3,bus2=BMT98290649.1.2.3,Phases=3,LineCode=tieSwitch,Length=0.001,Units=km,switch=T !numEQ 36508
new line.CTR153868 bus1=BMT98293225.1.2.3,bus2=BMT153046273.1.2.3,Phases=3,LineCode=tieSwitch,Length=0.001,Units=km,switch=T !numEQ 36523
new line.CTR153882 bus1=BMT98293113.1.2.3,bus2=BMT2402809.1.2.3,Phases=3,LineCode=tieSwitch,Length=0.001,Units=km,switch=T !numEQ 36530
open line.CTR153882 term=1
new line.CTR153910 bus1=BMT169549259.1.2.3,bus2=BMT98292679.1.2.3,Phases=3,LineCode=tieSwitch,Length=0.001,Units=km,switch=T !numEQ 36516
new line.CTR153952 bus1=BMT162580157.2,bus2=BMT172375321.2,Phases=1,LineCode=tieSwitch1,Length=0.001,Units=km,switch=T !numEQ 36189
new line.CTR153966 bus1=BMT162579942.1.2.3,bus2=BMT168520497.1.2.3,Phases=3,LineCode=tieSwitch,Length=0.001,Units=km,switch=T !numEQ 36191
new line.CTR155254 bus1=BMT98287422.1.2.3,bus2=BMT98288248.1.2.3,Phases=3,LineCode=tieSwitch,Length=0.001,Units=km,switch=T !numEQ 35399
new line.CTR155268 bus1=BMT98288255.3,bus2=BMT171847493.3,Phases=1,LineCode=tieSwitch1,Length=0.001,Units=km,switch=T !numEQ 35400
new line.CTR155324 bus1=BMT98291181.3,bus2=BMT165134595.3,Phases=1,LineCode=tieSwitch1,Length=0.001,Units=km,switch=T !numEQ 35407
new line.CTR155338 bus1=BMT98289585.1,bus2=BMT98290215.1,Phases=1,LineCode=tieSwitch1,Length=0.001,Units=km,switch=T !numEQ 35411
new line.CTR155352 bus1=BMT152086563.1.2.3,bus2=BMT98289599.1.2.3,Phases=3,LineCode=tieSwitch,Length=0.001,Units=km,switch=T !numEQ 35412
open line.CTR155352 term=1
new line.CTR31494 bus1=BMT162580853.1.2.3,bus2=BMT162580856.1.2.3,Phases=3,LineCode=tieSwitch,Length=0.001,Units=km,switch=T !numEQ 161037
new line.CTR49386 bus1=BMT98300722.1.2.3,bus2=BMT98300939.1.2.3,Phases=3,LineCode=tieSwitch,Length=0.001,Units=km,switch=T !numEQ 106742
new line.CTR543222 bus1=BMT162580812.1.2.3,bus2=BMT162581033.1.2.3,Phases=3,LineCode=tieSwitch,Length=0.001,Units=km,switch=T !numEQ 161255
new line.CTR544426 bus1=BMT98291111.3,bus2=BMT167791771.3,Phases=1,LineCode=tieSwitch1,Length=0.001,Units=km,switch=T !numEQ 36575
new line.CTR544496 bus1=BMT162579994.2,bus2=BMT162580046.2,Phases=1,LineCode=tieSwitch1,Length=0.001,Units=km,switch=T !numEQ 37710
new line.CTR544510 bus1=BMT162580006.2,bus2=BMT168652924.2,Phases=1,LineCode=tieSwitch1,Length=0.001,Units=km,switch=T !numEQ 34464
new line.CTR544664 bus1=BMT98294849.2,bus2=BMT171148751.2,Phases=1,LineCode=tieSwitch1,Length=0.001,Units=km,switch=T !numEQ 37321
new line.CTR544762 bus1=BMT98292371.1,bus2=BMT98292399.1,Phases=1,LineCode=tieSwitch1,Length=0.001,Units=km,switch=T !numEQ 161597
new line.CTR544916 bus1=BMT98290999.1.2.3,bus2=BMT150709827.1.2.3,Phases=3,LineCode=tieSwitch,Length=0.001,Units=km,switch=T !numEQ 36857
new line.CTR545112 bus1=BMT164801264.1.2.3,bus2=BMT2402718.1.2.3,Phases=3,LineCode=tieSwitch,Length=0.001,Units=km,switch=T !numEQ 36510
open line.CTR545112 term=1
new line.CTR545210 bus1=BMT152549519.1.2.3,bus2=BMT98292609.1.2.3,Phases=3,LineCode=tieSwitch,Length=0.001,Units=km,switch=T !numEQ 36515
new line.CTR545294 bus1=BMT162580810.1.2.3,bus2=BMT162637787.1.2.3,Phases=3,LineCode=tieSwitch,Length=0.001,Units=km,switch=T !numEQ 34444
new line.CTR545882 bus1=BMT162580243.1.2.3,bus2=BMT163685867.1.2.3,Phases=3,LineCode=tieSwitch,Length=0.001,Units=km,switch=T !numEQ 374946
new line.CTR545952 bus1=BMT162579918.1.2.3,bus2=BMT162579921.1.2.3,Phases=3,LineCode=tieSwitch,Length=0.001,Units=km,switch=T !numEQ 34389
new line.CTR546988 bus1=BMT162580411.2,bus2=BMT162580436.2,Phases=1,LineCode=tieSwitch1,Length=0.001,Units=km,switch=T !numEQ 100699
new line.CTR613215 bus1=BMT162580397.1.2.3,bus2=BMT162580450.1.2.3,Phases=3,LineCode=tieSwitch,Length=0.001,Units=km,switch=T !numEQ 105501
new line.CTR671693 bus1=BMT162579999.1,bus2=BMT162580143.1,Phases=1,LineCode=tieSwitch1,Length=0.001,Units=km,switch=T !numEQ 159677
new line.CTR67264 bus1=BMT98296256.3,bus2=BMT172585109.3,Phases=1,LineCode=tieSwitch1,Length=0.001,Units=km,switch=T !numEQ 34320
new line.CTR673576 bus1=BMT98289480.1.2.3,bus2=BMT162973139.1.2.3,Phases=3,LineCode=tieSwitch,Length=0.001,Units=km,switch=T !numEQ 161837
new line.CTR673891 bus1=BMT162579953.1.2.3,bus2=BMT162580641.1.2.3,Phases=3,LineCode=tieSwitch,Length=0.001,Units=km,switch=T !numEQ 161617
new line.CTR674633 bus1=BMT98294667.1.2.3,bus2=BMT152672236.1.2.3,Phases=3,LineCode=tieSwitch,Length=0.001,Units=km,switch=T !numEQ 142566
new line.CTR751745 bus1=BMT162580628.1.2.3,bus2=BMT162580635.1.2.3,Phases=3,LineCode=tieSwitch,Length=0.001,Units=km,switch=T !numEQ 222413
new line.CTR80228 bus1=BMT98289410.1.2.3,bus2=BMT152549466.1.2.3,Phases=3,LineCode=tieSwitch,Length=0.001,Units=km,switch=T !numEQ 37697
new line.CTR80242 bus1=BMT98287541.2,bus2=BMT162848198.2,Phases=1,LineCode=tieSwitch1,Length=0.001,Units=km,switch=T !numEQ 34637
new line.CTR873543 bus1=BMT156753051.1.2.3,bus2=BMT157389003.1.2.3,Phases=3,LineCode=tieSwitch,Length=0.001,Units=km,switch=T !numEQ 234288
new line.CTR873631 bus1=BMT156767798.1.2.3,bus2=BMT165495006.1.2.3,Phases=3,LineCode=tieSwitch,Length=0.001,Units=km,switch=T !numEQ 246092
new line.CTR874694 bus1=BMT157077139.1.2.3,bus2=BMT157079259.1.2.3,Phases=3,LineCode=tieSwitch,Length=0.001,Units=km,switch=T !numEQ 237620
new line.CTR874977 bus1=BMT157176637.1.2.3,bus2=BMT157628948.1.2.3,Phases=3,LineCode=tieSwitch,Length=0.001,Units=km,switch=T !numEQ 245388
new line.CTR874992 bus1=BMT157181359.1.2.3,bus2=BMT157628924.1.2.3,Phases=3,LineCode=tieSwitch,Length=0.001,Units=km,switch=T !numEQ 245387
new line.CTR874994 bus1=BMT157182870.1.2.3,bus2=BMT157628922.1.2.3,Phases=3,LineCode=tieSwitch,Length=0.001,Units=km,switch=T !numEQ 245386
new line.CTR8912 bus1=BMT162580336.1.2.3,bus2=BMT162580338.1.2.3,Phases=3,LineCode=tieSwitch,Length=0.001,Units=km,switch=T !numEQ 107867
new line.CTR891724 bus1=BMT163830119.3,bus2=BMT163939851.3,Phases=1,LineCode=tieSwitch1,Length=0.001,Units=km,switch=T !numEQ 262787
new line.CTR891768 bus1=BMT171733817.1.2.3,bus2=BMT171080768.1.2.3,Phases=3,LineCode=tieSwitch,Length=0.001,Units=km,switch=T !numEQ 268375
new line.CTR892106 bus1=BMT163960215.1,bus2=BMT163960222.1,Phases=1,LineCode=tieSwitch1,Length=0.001,Units=km,switch=T !numEQ 268393
new line.CTR73046 bus1=BMT98288493.2,bus2=BMT98288514.2,Phases=1,LineCode=tieSwitch1,Length=0.001,Units=km,switch=T !numEQ 34460
new line.CTR73060 bus1=BMT98287030.2,bus2=BMT98287142.2,Phases=1,LineCode=tieSwitch1,Length=0.001,Units=km,switch=T !numEQ 34461
new line.CTR73074 bus1=BMT162580170.2,bus2=BMT162580182.2,Phases=1,LineCode=tieSwitch1,Length=0.001,Units=km,switch=T !numEQ 34462
new line.CTR73088 bus1=BMT162580150.2,bus2=BMT162580195.2,Phases=1,LineCode=tieSwitch1,Length=0.001,Units=km,switch=T !numEQ 34463
new line.CTR73095 bus1=BMT137162552.3,bus2=BMT167756768.3,Phases=1,LineCode=tieSwitch1,Length=0.001,Units=km,switch=T !numEQ 34468
new line.CTR73109 bus1=BMT162580938.2,bus2=BMT167396744.2,Phases=1,LineCode=tieSwitch1,Length=0.001,Units=km,switch=T !numEQ 34466
new line.CTR73123 bus1=BMT162580992.2,bus2=BMT162581011.2,Phases=1,LineCode=tieSwitch1,Length=0.001,Units=km,switch=T !numEQ 34467
new line.CTR73137 bus1=BMT98303389.3,bus2=BMT172450897.3,Phases=1,LineCode=tieSwitch1,Length=0.001,Units=km,switch=T !numEQ 34469
new line.CTR733230 bus1=BMT162580713.3,bus2=BMT162580717.3,Phases=1,LineCode=tieSwitch1,Length=0.001,Units=km,switch=T !numEQ 136547
new line.CTR762336 bus1=BMT98290978.1.2.3,bus2=BMT98291909.1.2.3,Phases=3,LineCode=tieSwitch,Length=0.001,Units=km,switch=T !numEQ 222234
new line.CTR76238 bus1=BMT162580022.2,bus2=BMT162580054.2,Phases=1,LineCode=tieSwitch1,Length=0.001,Units=km,switch=T !numEQ 126836
new line.CTR763372 bus1=BMT162580337.1.2.3,bus2=BMT162580340.1.2.3,Phases=3,LineCode=tieSwitch,Length=0.001,Units=km,switch=T !numEQ 222230
new line.CTR76385 bus1=BMT98296473.2,bus2=BMT152574120.2,Phases=1,LineCode=tieSwitch1,Length=0.001,Units=km,switch=T !numEQ 35394
new line.CTR76413 bus1=BMT98287408.3,bus2=BMT98288626.3,Phases=1,LineCode=tieSwitch1,Length=0.001,Units=km,switch=T !numEQ 35398
new line.CTR764142 bus1=BMT98287247.1.2.3,bus2=BMT152549426.1.2.3,Phases=3,LineCode=tieSwitch,Length=0.001,Units=km,switch=T !numEQ 222466
new line.CTR76441 bus1=BMT162579960.1.2.3,bus2=BMT162580609.1.2.3,Phases=3,LineCode=tieSwitch,Length=0.001,Units=km,switch=T !numEQ 35403
new line.CTR76483 bus1=BMT162580055.2,bus2=BMT162580069.2,Phases=1,LineCode=tieSwitch1,Length=0.001,Units=km,switch=T !numEQ 35415
new line.CTR765024 bus1=BMT162580657.3,bus2=BMT162580742.3,Phases=1,LineCode=tieSwitch1,Length=0.001,Units=km,switch=T !numEQ 222656
new line.CTR765045 bus1=BMT162580744.3,bus2=BMT162580753.3,Phases=1,LineCode=tieSwitch1,Length=0.001,Units=km,switch=T !numEQ 222657
new line.CTR76511 bus1=BMT162580351.1.2.3,bus2=BMT169287747.1.2.3,Phases=3,LineCode=tieSwitch,Length=0.001,Units=km,switch=T !numEQ 35426
new line.CTR76910 bus1=BMT162580487.1,bus2=BMT162580498.1,Phases=1,LineCode=tieSwitch1,Length=0.001,Units=km,switch=T !numEQ 36140
new line.CTR830845 bus1=BMT135801262.1.2.3,bus2=BMT162838952.1.2.3,Phases=3,LineCode=tieSwitch,Length=0.001,Units=km,switch=T !numEQ 222548
new line.CTR830852 bus1=BMT135801500.1.2.3,bus2=BMT151468238.1.2.3,Phases=3,LineCode=tieSwitch,Length=0.001,Units=km,switch=T !numEQ 222547
new line.CTR848148 bus1=BMT162413479.1,bus2=BMT162413484.1,Phases=1,LineCode=tieSwitch1,Length=0.001,Units=km,switch=T !numEQ 377636
new line.CTR858592 bus1=BMT152406659.1.2.3,bus2=BMT168225170.1.2.3,Phases=3,LineCode=tieSwitch,Length=0.001,Units=km,switch=T !numEQ 382222
new line.CTR859139 bus1=BMT152560979.3,bus2=BMT160196578.3,Phases=1,LineCode=tieSwitch1,Length=0.001,Units=km,switch=T !numEQ 375902
new line.CTR859178 bus1=BMT152577572.1,bus2=BMT164624740.1,Phases=1,LineCode=tieSwitch1,Length=0.001,Units=km,switch=T !numEQ 140572
new line.CTR875493 bus1=BMT157337119.1.2.3,bus2=BMT163778436.1.2.3,Phases=3,LineCode=tieSwitch,Length=0.001,Units=km,switch=T !numEQ 246262
new line.CTR875525 bus1=BMT171481597.1.2.3,bus2=BMT171481599.1.2.3,Phases=3,LineCode=tieSwitch,Length=0.001,Units=km,switch=T !numEQ 246099
new line.CTR875596 bus1=BMT167788389.3,bus2=BMT167789713.3,Phases=1,LineCode=tieSwitch1,Length=0.001,Units=km,switch=T !numEQ 245407
new line.CTR875764 bus1=BMT164430926.2,bus2=BMT164430978.2,Phases=1,LineCode=tieSwitch1,Length=0.001,Units=km,switch=T !numEQ 222504
new line.CTR888259 bus1=BMT162314543.1.2.3,bus2=BMT162314560.1.2.3,Phases=3,LineCode=tieSwitch,Length=0.001,Units=km,switch=T !numEQ 253545
new line.CTR888309 bus1=BMT162326908.3,bus2=BMT162830428.3,Phases=1,LineCode=tieSwitch1,Length=0.001,Units=km,switch=T !numEQ 234074
new line.CTR8884 bus1=BMT162580320.1.2.3,bus2=BMT162580321.1.2.3,Phases=3,LineCode=tieSwitch,Length=0.001,Units=km,switch=T !numEQ 107865
new line.CTR888564 bus1=BMT162413961.1,bus2=BMT162413965.1,Phases=1,LineCode=tieSwitch1,Length=0.001,Units=km,switch=T !numEQ 238325
new line.CTR888975 bus1=BMT162632021.1.2.3,bus2=BMT165437196.1.2.3,Phases=3,LineCode=tieSwitch,Length=0.001,Units=km,switch=T !numEQ 258867
new line.CTR888978 bus1=BMT162632163.1.2.3,bus2=BMT162632166.1.2.3,Phases=3,LineCode=tieSwitch,Length=0.001,Units=km,switch=T !numEQ 258868
new line.CTR895974 bus1=BMT168224879.1.2.3,bus2=BMT166211633.1.2.3,Phases=3,LineCode=tieSwitch,Length=0.001,Units=km,switch=T !numEQ 258910
open line.CTR895974 term=1
new line.CTR895989 bus1=BMT165117973.1.2.3,bus2=BMT171667842.1.2.3,Phases=3,LineCode=tieSwitch,Length=0.001,Units=km,switch=T !numEQ 269824
new line.CTR896179 bus1=BMT165180617.3,bus2=BMT165181243.3,Phases=1,LineCode=tieSwitch1,Length=0.001,Units=km,switch=T !numEQ 253400
new line.CTR896309 bus1=BMT165230261.1.2.3,bus2=BMT167502445.1.2.3,Phases=3,LineCode=tieSwitch,Length=0.001,Units=km,switch=T !numEQ 267105
new line.CTR896320 bus1=BMT165233154.1.2.3,bus2=BMT167194771.1.2.3,Phases=3,LineCode=tieSwitch,Length=0.001,Units=km,switch=T !numEQ 267108
new line.CTR896326 bus1=BMT167194925.1.2.3,bus2=BMT165235495.1.2.3,Phases=3,LineCode=tieSwitch,Length=0.001,Units=km,switch=T !numEQ 267107
open line.CTR896326 term=1
new line.CTR896329 bus1=BMT165236463.1.2.3,bus2=BMT167194920.1.2.3,Phases=3,LineCode=tieSwitch,Length=0.001,Units=km,switch=T !numEQ 267106
new line.CTR896353 bus1=BMT165254912.1,bus2=BMT165254951.1,Phases=1,LineCode=tieSwitch1,Length=0.001,Units=km,switch=T !numEQ 253917
new line.CTR896890 bus1=BMT165495825.1,bus2=BMT165495826.1,Phases=1,LineCode=tieSwitch1,Length=0.001,Units=km,switch=T !numEQ 269820
new line.CTR896891 bus1=BMT166464979.1.2.3,bus2=BMT166465100.1.2.3,Phases=3,LineCode=tieSwitch,Length=0.001,Units=km,switch=T !numEQ 269821
new line.CTR896895 bus1=BMT165496059.1.2.3,bus2=BMT166464975.1.2.3,Phases=3,LineCode=tieSwitch,Length=0.001,Units=km,switch=T !numEQ 269819
new line.CTR909492 bus1=BMT171076663.1.2.3,bus2=BMT171076665.1.2.3,Phases=3,LineCode=tieSwitch,Length=0.001,Units=km,switch=T !numEQ 273224
new line.CTR100430 bus1=BMT98294702.3,bus2=BMT98295934.3,Phases=1,LineCode=tieSwitch1,Length=0.001,Units=km,switch=T !numEQ 119008
new line.CTR113660 bus1=BMT98296620.2,bus2=BMT152574010.2,Phases=1,LineCode=tieSwitch1,Length=0.001,Units=km,switch=T !numEQ 75939
new line.CTR125112 bus1=BMT98293414.1.2.3,bus2=BMT98300456.1.2.3,Phases=3,LineCode=tieSwitch,Length=0.001,Units=km,switch=T !numEQ 36527
new line.CTR125616 bus1=BMT162580480.1,bus2=BMT164190359.1,Phases=1,LineCode=tieSwitch1,Length=0.001,Units=km,switch=T !numEQ 36576
new line.CTR125868 bus1=BMT98293582.1.2.3,bus2=BMT165437646.1.2.3,Phases=3,LineCode=tieSwitch,Length=0.001,Units=km,switch=T !numEQ 372714
new line.CTR12650 bus1=BMT98292777.1.2.3,bus2=BMT98293078.1.2.3,Phases=3,LineCode=tieSwitch,Length=0.001,Units=km,switch=T !numEQ 136916
new line.CTR137852 bus1=BMT172375364.1.2.3,bus2=BMT98290789.1.2.3,Phases=3,LineCode=tieSwitch,Length=0.001,Units=km,switch=T !numEQ 36513
new line.CTR147946 bus1=BMT98287646.1.2.3,bus2=BMT98288003.1.2.3,Phases=3,LineCode=tieSwitch,Length=0.001,Units=km,switch=T !numEQ 118976
new line.CTR147960 bus1=BMT98286771.1.2.3,bus2=BMT98286813.1.2.3,Phases=3,LineCode=tieSwitch,Length=0.001,Units=km,switch=T !numEQ 118977
new line.CTR21806 bus1=BMT162580678.3,bus2=BMT172093004.3,Phases=1,LineCode=tieSwitch1,Length=0.001,Units=km,switch=T !numEQ 34315
new line.CTR38214 bus1=BMT98292000.1.2.3,bus2=BMT173264213.1.2.3,Phases=3,LineCode=tieSwitch,Length=0.001,Units=km,switch=T !numEQ 136911
new line.CTR38228 bus1=BMT98291986.1.2.3,bus2=BMT98292427.1.2.3,Phases=3,LineCode=tieSwitch,Length=0.001,Units=km,switch=T !numEQ 136910
new line.CTR42484 bus1=BMT98288087.1,bus2=BMT159957489.1,Phases=1,LineCode=tieSwitch1,Length=0.001,Units=km,switch=T !numEQ 130983
new line.CTR42757 bus1=BMT98287520.2,bus2=BMT98288234.2,Phases=1,LineCode=tieSwitch1,Length=0.001,Units=km,switch=T !numEQ 126823
new line.CTR529502 bus1=BMT162580855.1.2.3,bus2=BMT162580858.1.2.3,Phases=3,LineCode=tieSwitch,Length=0.001,Units=km,switch=T !numEQ 161655
new line.CTR53096 bus1=BMT164833948.1.2.3,bus2=BMT165091550.1.2.3,Phases=3,LineCode=tieSwitch,Length=0.001,Units=km,switch=T !numEQ 36928
new line.CTR534927 bus1=BMT170420197.1.2.3,bus2=BMT162580805.1.2.3,Phases=3,LineCode=tieSwitch,Length=0.001,Units=km,switch=T !numEQ 36511
new line.CTR598907 bus1=BMT162580826.1.2.3,bus2=BMT162580828.1.2.3,Phases=3,LineCode=tieSwitch,Length=0.001,Units=km,switch=T !numEQ 100357
new line.CTR603597 bus1=BMT98288479.3,bus2=BMT160345469.3,Phases=1,LineCode=tieSwitch1,Length=0.001,Units=km,switch=T !numEQ 76230
new line.CTR651155 bus1=BMT162580383.1,bus2=BMT167326248.1,Phases=1,LineCode=tieSwitch1,Length=0.001,Units=km,switch=T !numEQ 37427
new line.CTR651190 bus1=BMT98292742.1.2.3,bus2=BMT98300967.1.2.3,Phases=3,LineCode=tieSwitch,Length=0.001,Units=km,switch=T !numEQ 37445
new line.CTR651505 bus1=BMT98294814.2,bus2=BMT166984383.2,Phases=1,LineCode=tieSwitch1,Length=0.001,Units=km,switch=T !numEQ 37214
new line.CTR651519 bus1=BMT98294625.1.2.3,bus2=BMT98300323.1.2.3,Phases=3,LineCode=tieSwitch,Length=0.001,Units=km,switch=T !numEQ 37215
new line.CTR651533 bus1=BMT162579876.2,bus2=BMT162579877.2,Phases=1,LineCode=tieSwitch1,Length=0.001,Units=km,switch=T !numEQ 37217
new line.CTR652499 bus1=BMT162580260.1.2.3,bus2=BMT162580269.1.2.3,Phases=3,LineCode=tieSwitch,Length=0.001,Units=km,switch=T !numEQ 118010
new line.CTR653157 bus1=BMT98287667.1.2.3,bus2=BMT98287905.1.2.3,Phases=3,LineCode=tieSwitch,Length=0.001,Units=km,switch=T !numEQ 162460
new line.CTR653171 bus1=BMT98287919.1.2.3,bus2=BMT98287926.1.2.3,Phases=3,LineCode=tieSwitch,Length=0.001,Units=km,switch=T !numEQ 162461
new line.CTR716654 bus1=BMT168662495.1.2.3,bus2=BMT168662496.1.2.3,Phases=3,LineCode=tieSwitch,Length=0.001,Units=km,switch=T !numEQ 163472
new line.CTR79500 bus1=BMT98290754.1.2.3,bus2=BMT172630851.1.2.3,Phases=3,LineCode=tieSwitch,Length=0.001,Units=km,switch=T !numEQ 37441
new line.CTR800829 bus1=BMT162580520.1.2.3,bus2=BMT162580521.1.2.3,Phases=3,LineCode=tieSwitch,Length=0.001,Units=km,switch=T !numEQ 299689
new line.CTR80186 bus1=BMT98289802.1,bus2=BMT166131496.1,Phases=1,LineCode=tieSwitch1,Length=0.001,Units=km,switch=T !numEQ 105535
new line.CTR879585 bus1=BMT158756274.1.2.3,bus2=BMT163772332.1.2.3,Phases=3,LineCode=tieSwitch,Length=0.001,Units=km,switch=T !numEQ 161776
new line.CTR898523 bus1=BMT166211424.1.2.3,bus2=BMT168225066.1.2.3,Phases=3,LineCode=tieSwitch,Length=0.001,Units=km,switch=T !numEQ 258908
new line.CTR898524 bus1=BMT166211634.1.2.3,bus2=BMT168224869.1.2.3,Phases=3,LineCode=tieSwitch,Length=0.001,Units=km,switch=T !numEQ 258909
new line.CTR898532 bus1=BMT166215237.1,bus2=BMT166215434.1,Phases=1,LineCode=tieSwitch1,Length=0.001,Units=km,switch=T !numEQ 270942
new line.CTR911949 bus1=BMT170738188.1.2.3,bus2=BMT170739385.1.2.3,Phases=3,LineCode=tieSwitch,Length=0.001,Units=km,switch=T !numEQ 275242
new line.CTR911955 bus1=BMT170739391.1.2.3,bus2=BMT170739350.1.2.3,Phases=3,LineCode=tieSwitch,Length=0.001,Units=km,switch=T !numEQ 279856
open line.CTR911955 term=1
new line.CTRR30941 bus1=BMT98289067.1.2.3,bus2=BMT165984080.1.2.3,Phases=3,LineCode=tieSwitch,Length=0.001,Units=km,switch=T !numEQ 209989
...