2024_89_CemigReconfigurationCases/1_AlimsCemig/ACSU106/ACSU106Transformadores.dss
new transformer.1120114 Phases=3,Windings=2,Buses=[BMT161234461.1.2.3 BBT27188492.1.2.3.0],Conns=[delta wye],kvs=[13.8 0.22],kvas=[75.000000000 75.000000000],Taps=[1,1.000000000],%loadloss=1.340000000,%noloadloss=0.340000000
new transformer.1271895 Phases=3,Windings=2,Buses=[BMT151518653.1.2.3 BBT70951862.1.2.3.0],Conns=[delta wye],kvs=[13.8 0.22],kvas=[45.000000000 45.000000000],Taps=[1,1.000000000],%loadloss=1.522000000,%noloadloss=0.377777000
new transformer.1273071 Phases=1,Windings=3,Buses=[BMT165180618.3 BBT78872383.1.0 BBT78872383.0.2],Conns=[wye wye wye],kvs=[7.967 0.12 0.12],kvas=[5.000000000 5.000000000 5.000000000],Taps=[1,1.000000000,1.000000000],%loadloss=1.900000000,%noloadloss=0.600000000
new transformer.1306531 Phases=1,Windings=3,Buses=[BMT163772347.1 BBT84274927.1.0 BBT84274927.0.2],Conns=[wye wye wye],kvs=[7.967 0.12 0.12],kvas=[5.000000000 5.000000000 5.000000000],Taps=[1,1.000000000,1.000000000],%loadloss=1.900000000,%noloadloss=0.600000000
new transformer.1339270 Phases=3,Windings=2,Buses=[BMT161625284.1.2.3 BBT107597758.1.2.3.0],Conns=[delta wye],kvs=[13.8 0.22],kvas=[30.000000000 30.000000000],Taps=[1,1.000000000],%loadloss=1.667000000,%noloadloss=0.433333000
new transformer.1339396 Phases=3,Windings=2,Buses=[BMT161625282.1.2.3 BBT107652631.1.2.3.0],Conns=[delta wye],kvs=[13.8 0.22],kvas=[30.000000000 30.000000000],Taps=[1,1.000000000],%loadloss=1.667000000,%noloadloss=0.433333000
new transformer.1339508 Phases=3,Windings=2,Buses=[BMT161625269.1.2.3 BBT107742980.1.2.3.0],Conns=[delta wye],kvs=[13.8 0.22],kvas=[30.000000000 30.000000000],Taps=[1,1.000000000],%loadloss=1.667000000,%noloadloss=0.433333000
new transformer.1339557 Phases=3,Windings=2,Buses=[BMT161625290.1.2.3 BBT107802123.1.2.3.0],Conns=[delta wye],kvs=[13.8 0.22],kvas=[45.000000000 45.000000000],Taps=[1,1.000000000],%loadloss=1.522000000,%noloadloss=0.377777000
new transformer.1339564 Phases=3,Windings=2,Buses=[BMT161625291.1.2.3 BBT107803999.1.2.3.0],Conns=[delta wye],kvs=[13.8 0.22],kvas=[30.000000000 30.000000000],Taps=[1,1.000000000],%loadloss=1.667000000,%noloadloss=0.433333000
new transformer.1339627 Phases=3,Windings=2,Buses=[BMT161625270.1.2.3 BBT107864073.1.2.3.0],Conns=[delta wye],kvs=[13.8 0.22],kvas=[30.000000000 30.000000000],Taps=[1,1.000000000],%loadloss=1.667000000,%noloadloss=0.433333000
new transformer.1367221 Phases=3,Windings=2,Buses=[BMT156709331.1.2.3 BBT148346467.1.2.3.0],Conns=[delta wye],kvs=[13.8 0.22],kvas=[45.000000000 45.000000000],Taps=[1,1.000000000],%loadloss=1.522000000,%noloadloss=0.377777000
new transformer.1383762 Phases=3,Windings=2,Buses=[BMT161625265.1.2.3 BBT148519085.1.2.3.0],Conns=[delta wye],kvs=[13.8 0.22],kvas=[45.000000000 45.000000000],Taps=[1,1.000000000],%loadloss=1.522000000,%noloadloss=0.377777000
new transformer.1384819 Phases=1,Windings=3,Buses=[BMT165502979.3 BBT138283168.1.0 BBT138283168.0.2],Conns=[wye wye wye],kvs=[7.967 0.12 0.12],kvas=[10.000000000 10.000000000 10.000000000],Taps=[1,1.000000000,1.000000000],%loadloss=1.800000000,%noloadloss=0.450000000
new transformer.1386863 Phases=3,Windings=2,Buses=[BMT172257669.1.2.3 BBT138849692.1.2.3.0],Conns=[delta wye],kvs=[13.8 0.22],kvas=[45.000000000 45.000000000],Taps=[1,1.000000000],%loadloss=1.522000000,%noloadloss=0.377777000
new transformer.1397474 Phases=3,Windings=2,Buses=[BMT171733816.1.2.3 BBT149783980.1.2.3.0],Conns=[delta wye],kvs=[13.8 0.22],kvas=[45.000000000 45.000000000],Taps=[1,1.000000000],%loadloss=1.522000000,%noloadloss=0.377777000
new transformer.1397483 Phases=3,Windings=2,Buses=[BMT171080762.1.2.3 BBT149785970.1.2.3.0],Conns=[delta wye],kvs=[13.8 0.22],kvas=[45.000000000 45.000000000],Taps=[1,1.000000000],%loadloss=1.522000000,%noloadloss=0.377777000
new transformer.1397853 Phases=3,Windings=2,Buses=[BMT171723867.1.2.3 BBT149845562.1.2.3.0],Conns=[delta wye],kvs=[13.8 0.22],kvas=[45.000000000 45.000000000],Taps=[1,1.000000000],%loadloss=1.522000000,%noloadloss=0.377777000
new transformer.1397855 Phases=3,Windings=2,Buses=[BMT171723868.1.2.3 BBT149845632.1.2.3.0],Conns=[delta wye],kvs=[13.8 0.22],kvas=[45.000000000 45.000000000],Taps=[1,1.000000000],%loadloss=1.522000000,%noloadloss=0.377777000
new transformer.1397858 Phases=3,Windings=2,Buses=[BMT171723871.1.2.3 BBT149846057.1.2.3.0],Conns=[delta wye],kvs=[13.8 0.22],kvas=[75.000000000 75.000000000],Taps=[1,1.000000000],%loadloss=1.340000000,%noloadloss=0.340000000
new transformer.1397863 Phases=3,Windings=2,Buses=[BMT171080755.1.2.3 BBT149846569.1.2.3.0],Conns=[delta wye],kvs=[13.8 0.22],kvas=[75.000000000 75.000000000],Taps=[1,1.000000000],%loadloss=1.340000000,%noloadloss=0.340000000
new transformer.1397864 Phases=3,Windings=2,Buses=[BMT171080758.1.2.3 BBT149846595.1.2.3.0],Conns=[delta wye],kvs=[13.8 0.22],kvas=[45.000000000 45.000000000],Taps=[1,1.000000000],%loadloss=1.522000000,%noloadloss=0.377777000
...